hwloc/linux: Ignoring PCI device with non-16bit domain.
Pass --enable-32bits-pci-domain to configure to support such devices
(warning: it would break the library ABI, don't enable unless really needed).
/*---------------------------------------------------------------------------*\
| =========                 |                                                 |
| \\      /  F ield         | OpenFOAM: The Open Source CFD Toolbox           |
|  \\    /   O peration     | Version:  v1806                                 |
|   \\  /    A nd           | Web:      www.OpenFOAM.com                      |
|    \\/     M anipulation  |                                                 |
\*---------------------------------------------------------------------------*/
Build  : v1806-17db0a5e0ee7
Arch   : "LSB;label=32;scalar=64"
Exec   : pimpleFoam -parallel
Date   : Jul 09 2023
Time   : 12:09:30
Host   : "helios"
PID    : 18187
I/O    : uncollated
Case   : /home/hannes/Projekte/insight/src/test/toolkit/tutorial_mixerVesselAMI2D
nProcs : 4
Hosts  :
(
    (helios 4)
)
Pstream initialized with:
    floatTransfer      : 0
    nProcsSimpleSum    : 0
    commsType          : nonBlocking
    polling iterations : 0
trapFpe: Floating point exception trapping enabled (FOAM_SIGFPE).
fileModificationChecking : Monitoring run-time modified files using timeStampMaster (fileModificationSkew 10)
allowSystemOperations : Allowing user-supplied system call operations

// * * * * * * * * * * * * * * * * * * * * * * * * * * * * * * * * * * * * * //
Create time

Create mesh for time = 0

Selecting dynamicFvMesh dynamicMotionSolverFvMesh
Selecting motion solver: solidBody
Selecting solid-body motion function rotatingMotion
Applying solid body motion to cellZone rotor

PIMPLE: no residual control data found. Calculations will employ 2 corrector loops

Reading field p

Reading field U

Reading/calculating face flux field phi

AMI: Creating addressing and weights between 96 source faces and 96 target faces
AMI: Patch source sum(weights) min:1 max:1 average:1
AMI: Patch target sum(weights) min:1 max:1 average:1
Selecting incompressible transport model Newtonian
Selecting turbulence model type laminar
Selecting laminar stress model Stokes
No MRF models present

No finite volume options present
Constructing face velocity Uf

Courant Number mean: 0 max: 0

Starting time loop

Courant Number mean: 0 max: 0
deltaT = 0.00120482
Time = 0.00120482

PIMPLE: iteration 1
AMI: Creating addressing and weights between 96 source faces and 96 target faces
AMI: Patch source sum(weights) min:1.00011 max:1.00011 average:1.00011
AMI: Patch target sum(weights) min:1.00011 max:1.00011 average:1.00011
GAMG:  Solving for pcorr, Initial residual = 1, Final residual = 0.0123624, No Iterations 6
time step continuity errors : sum local = 0.000150177, global = 9.20905e-11, cumulative = 9.20905e-11
smoothSolver:  Solving for Ux, Initial residual = 1, Final residual = 0.00259746, No Iterations 2
smoothSolver:  Solving for Uy, Initial residual = 1, Final residual = 0.00176999, No Iterations 2
GAMG:  Solving for p, Initial residual = 1, Final residual = 6.94156e-07, No Iterations 17
time step continuity errors : sum local = 3.44297e-08, global = -3.29606e-08, cumulative = -3.28685e-08
PIMPLE: iteration 2
smoothSolver:  Solving for Ux, Initial residual = 0.0420116, Final residual = 5.53884e-07, No Iterations 4
smoothSolver:  Solving for Uy, Initial residual = 0.0421822, Final residual = 2.20834e-07, No Iterations 4
GAMG:  Solving for p, Initial residual = 0.107484, Final residual = 9.55122e-07, No Iterations 17
time step continuity errors : sum local = 6.76644e-09, global = 2.14236e-09, cumulative = -3.07262e-08
ExecutionTime = 0.02 s  ClockTime = 0 s

Courant Number mean: 0.0339273 max: 0.343262
deltaT = 0.00137216
Time = 0.00257697

PIMPLE: iteration 1
AMI: Creating addressing and weights between 96 source faces and 96 target faces
AMI: Patch source sum(weights) min:1.0002 max:1.0002 average:1.0002
AMI: Patch target sum(weights) min:1.0002 max:1.0002 average:1.0002
GAMG:  Solving for pcorr, Initial residual = 1, Final residual = 0.0157414, No Iterations 4
time step continuity errors : sum local = 1.80994e-06, global = 2.7208e-09, cumulative = -2.80054e-08
smoothSolver:  Solving for Ux, Initial residual = 0.358766, Final residual = 0.000411306, No Iterations 2
smoothSolver:  Solving for Uy, Initial residual = 0.358772, Final residual = 0.000376323, No Iterations 2
GAMG:  Solving for p, Initial residual = 0.728317, Final residual = 7.74079e-07, No Iterations 25
time step continuity errors : sum local = 1.03489e-08, global = 6.92996e-09, cumulative = -2.10754e-08
PIMPLE: iteration 2
smoothSolver:  Solving for Ux, Initial residual = 0.050113, Final residual = 3.91711e-07, No Iterations 4
smoothSolver:  Solving for Uy, Initial residual = 0.0500651, Final residual = 2.36463e-07, No Iterations 4
GAMG:  Solving for p, Initial residual = 0.340465, Final residual = 4.76282e-07, No Iterations 16
time step continuity errors : sum local = 7.79352e-09, global = 7.00164e-09, cumulative = -1.40737e-08
ExecutionTime = 0.03 s  ClockTime = 0 s

Courant Number mean: 0.0384852 max: 0.3834
deltaT = 0.0015464
Time = 0.00412337

PIMPLE: iteration 1
AMI: Creating addressing and weights between 96 source faces and 96 target faces
AMI: Patch source sum(weights) min:1.00026 max:1.00026 average:1.00026
AMI: Patch target sum(weights) min:1.00026 max:1.00026 average:1.00026
GAMG:  Solving for pcorr, Initial residual = 1, Final residual = 0.00995144, No Iterations 6
time step continuity errors : sum local = 2.22577e-06, global = 1.29068e-08, cumulative = -1.16696e-09
smoothSolver:  Solving for Ux, Initial residual = 0.0290014, Final residual = 5.94446e-05, No Iterations 2
smoothSolver:  Solving for Uy, Initial residual = 0.0290037, Final residual = 5.48199e-05, No Iterations 2
GAMG:  Solving for p, Initial residual = 0.192044, Final residual = 8.66792e-07, No Iterations 13
time step continuity errors : sum local = 1.14344e-08, global = 1.00781e-08, cumulative = 8.9111e-09
PIMPLE: iteration 2
smoothSolver:  Solving for Ux, Initial residual = 0.00158184, Final residual = 3.19712e-07, No Iterations 3
smoothSolver:  Solving for Uy, Initial residual = 0.00158316, Final residual = 2.47033e-07, No Iterations 3
GAMG:  Solving for p, Initial residual = 0.0342415, Final residual = 9.01215e-07, No Iterations 13
time step continuity errors : sum local = 1.05642e-08, global = 9.26515e-09, cumulative = 1.81762e-08
ExecutionTime = 0.04 s  ClockTime = 0 s

Courant Number mean: 0.043156 max: 0.4208
deltaT = 0.00174321
Time = 0.00586658

PIMPLE: iteration 1
AMI: Creating addressing and weights between 96 source faces and 96 target faces
AMI: Patch source sum(weights) min:1.00026 max:1.00026 average:1.00026
AMI: Patch target sum(weights) min:1.00026 max:1.00026 average:1.00026
GAMG:  Solving for pcorr, Initial residual = 1, Final residual = 0.0179619, No Iterations 4
time step continuity errors : sum local = 3.248e-06, global = 2.03398e-08, cumulative = 3.8516e-08
smoothSolver:  Solving for Ux, Initial residual = 0.0230933, Final residual = 5.13863e-05, No Iterations 2
smoothSolver:  Solving for Uy, Initial residual = 0.023092, Final residual = 5.35765e-05, No Iterations 2
GAMG:  Solving for p, Initial residual = 0.113861, Final residual = 7.88282e-07, No Iterations 18
time step continuity errors : sum local = 1.28156e-08, global = 1.14966e-08, cumulative = 5.00126e-08
PIMPLE: iteration 2
smoothSolver:  Solving for Ux, Initial residual = 0.00119979, Final residual = 3.32034e-07, No Iterations 3
smoothSolver:  Solving for Uy, Initial residual = 0.00120528, Final residual = 2.85056e-07, No Iterations 3
GAMG:  Solving for p, Initial residual = 0.0339193, Final residual = 5.3673e-07, No Iterations 10
time step continuity errors : sum local = 9.95799e-09, global = 9.18553e-09, cumulative = 5.91981e-08
ExecutionTime = 0.04 s  ClockTime = 0 s

Courant Number mean: 0.0483865 max: 0.463073
deltaT = 0.00188267
Time = 0.00774925

PIMPLE: iteration 1
AMI: Creating addressing and weights between 96 source faces and 96 target faces
AMI: Patch source sum(weights) min:1.0002 max:1.0002 average:1.0002
AMI: Patch target sum(weights) min:1.0002 max:1.0002 average:1.0002
GAMG:  Solving for pcorr, Initial residual = 1, Final residual = 0.01994, No Iterations 5
time step continuity errors : sum local = 3.9383e-06, global = 2.6019e-08, cumulative = 8.52171e-08
smoothSolver:  Solving for Ux, Initial residual = 0.022008, Final residual = 4.67e-05, No Iterations 2
smoothSolver:  Solving for Uy, Initial residual = 0.0220071, Final residual = 5.0235e-05, No Iterations 2
GAMG:  Solving for p, Initial residual = 0.0905504, Final residual = 8.50819e-07, No Iterations 11
time step continuity errors : sum local = 9.22662e-09, global = 7.8443e-09, cumulative = 9.30614e-08
PIMPLE: iteration 2
smoothSolver:  Solving for Ux, Initial residual = 0.00116269, Final residual = 3.34381e-07, No Iterations 3
smoothSolver:  Solving for Uy, Initial residual = 0.00116827, Final residual = 3.20051e-07, No Iterations 3
GAMG:  Solving for p, Initial residual = 0.0348281, Final residual = 6.51475e-07, No Iterations 11
time step continuity errors : sum local = 7.31963e-09, global = 6.2228e-09, cumulative = 9.92842e-08
ExecutionTime = 0.05 s  ClockTime = 0 s

Courant Number mean: 0.0519711 max: 0.488892
deltaT = 0.00192189
Time = 0.00967114

PIMPLE: iteration 1
AMI: Creating addressing and weights between 96 source faces and 96 target faces
AMI: Patch source sum(weights) min:1.00007 max:1.00007 average:1.00007
AMI: Patch target sum(weights) min:1.00007 max:1.00007 average:1.00007
GAMG:  Solving for pcorr, Initial residual = 1, Final residual = 0.0179434, No Iterations 4
time step continuity errors : sum local = 4.18384e-06, global = 2.7915e-08, cumulative = 1.27199e-07
smoothSolver:  Solving for Ux, Initial residual = 0.0208041, Final residual = 3.97708e-05, No Iterations 2
smoothSolver:  Solving for Uy, Initial residual = 0.0208033, Final residual = 4.25327e-05, No Iterations 2
GAMG:  Solving for p, Initial residual = 0.0754167, Final residual = 8.14041e-07, No Iterations 17
time step continuity errors : sum local = 2.02872e-09, global = 8.01359e-10, cumulative = 1.28001e-07
PIMPLE: iteration 2
smoothSolver:  Solving for Ux, Initial residual = 0.00109874, Final residual = 3.49361e-07, No Iterations 3
smoothSolver:  Solving for Uy, Initial residual = 0.00110131, Final residual = 3.60727e-07, No Iterations 3
GAMG:  Solving for p, Initial residual = 0.03262, Final residual = 6.19844e-07, No Iterations 9
time step continuity errors : sum local = 2.52119e-09, global = 1.56007e-09, cumulative = 1.29561e-07
ExecutionTime = 0.06 s  ClockTime = 0 s

Courant Number mean: 0.0528613 max: 0.48757
deltaT = 0.00196367
Time = 0.0116348

PIMPLE: iteration 1
AMI: Creating addressing and weights between 96 source faces and 96 target faces
AMI: Patch source sum(weights) min:1.00011 max:1.00011 average:1.00011
AMI: Patch target sum(weights) min:1.00011 max:1.00011 average:1.00011
GAMG:  Solving for pcorr, Initial residual = 1, Final residual = 0.0186679, No Iterations 5
time step continuity errors : sum local = 4.50093e-06, global = 2.92799e-08, cumulative = 1.58841e-07
smoothSolver:  Solving for Ux, Initial residual = 0.0211527, Final residual = 4.00521e-05, No Iterations 2
smoothSolver:  Solving for Uy, Initial residual = 0.0211513, Final residual = 3.97918e-05, No Iterations 2
GAMG:  Solving for p, Initial residual = 0.0722998, Final residual = 5.89925e-07, No Iterations 10
time step continuity errors : sum local = 6.31353e-09, global = 5.31612e-09, cumulative = 1.64157e-07
PIMPLE: iteration 2
smoothSolver:  Solving for Ux, Initial residual = 0.000998138, Final residual = 3.22826e-07, No Iterations 3
smoothSolver:  Solving for Uy, Initial residual = 0.00100338, Final residual = 3.34071e-07, No Iterations 3
GAMG:  Solving for p, Initial residual = 0.0276882, Final residual = 9.67237e-07, No Iterations 11
time step continuity errors : sum local = 7.50086e-09, global = 6.11501e-09, cumulative = 1.70272e-07
ExecutionTime = 0.07 s  ClockTime = 0 s

Courant Number mean: 0.053963 max: 0.486696
deltaT = 0.0020083
Time = 0.0136431

PIMPLE: iteration 1
AMI: Creating addressing and weights between 96 source faces and 96 target faces
AMI: Patch source sum(weights) min:1.00023 max:1.00023 average:1.00023
AMI: Patch target sum(weights) min:1.00023 max:1.00023 average:1.00023
GAMG:  Solving for pcorr, Initial residual = 1, Final residual = 0.0175907, No Iterations 4
time step continuity errors : sum local = 4.84903e-06, global = 4.00143e-08, cumulative = 2.10286e-07
smoothSolver:  Solving for Ux, Initial residual = 0.0203994, Final residual = 3.96412e-05, No Iterations 2
smoothSolver:  Solving for Uy, Initial residual = 0.0203985, Final residual = 3.85458e-05, No Iterations 2
GAMG:  Solving for p, Initial residual = 0.0977648, Final residual = 8.82264e-07, No Iterations 14
time step continuity errors : sum local = 1.51348e-08, global = 1.3714e-08, cumulative = 2.24e-07
PIMPLE: iteration 2
smoothSolver:  Solving for Ux, Initial residual = 0.000996706, Final residual = 3.35078e-07, No Iterations 3
smoothSolver:  Solving for Uy, Initial residual = 0.00100275, Final residual = 3.50578e-07, No Iterations 3
GAMG:  Solving for p, Initial residual = 0.0305875, Final residual = 5.17511e-07, No Iterations 10
time step continuity errors : sum local = 1.37948e-08, global = 1.30849e-08, cumulative = 2.37085e-07
ExecutionTime = 0.08 s  ClockTime = 0 s

Courant Number mean: 0.0551836 max: 0.485483
deltaT = 0.00205612
Time = 0.0156992

PIMPLE: iteration 1
AMI: Creating addressing and weights between 96 source faces and 96 target faces
AMI: Patch source sum(weights) min:1.00027 max:1.00027 average:1.00027
AMI: Patch target sum(weights) min:1.00027 max:1.00027 average:1.00027
GAMG:  Solving for pcorr, Initial residual = 1, Final residual = 0.0195802, No Iterations 5
time step continuity errors : sum local = 5.30465e-06, global = 5.29972e-08, cumulative = 2.90082e-07
smoothSolver:  Solving for Ux, Initial residual = 0.0201259, Final residual = 3.99835e-05, No Iterations 2
smoothSolver:  Solving for Uy, Initial residual = 0.0201235, Final residual = 3.89022e-05, No Iterations 2
GAMG:  Solving for p, Initial residual = 0.100124, Final residual = 4.87906e-07, No Iterations 11
time step continuity errors : sum local = 1.8174e-08, global = 1.75296e-08, cumulative = 3.07612e-07
PIMPLE: iteration 2
smoothSolver:  Solving for Ux, Initial residual = 0.00104693, Final residual = 3.20435e-07, No Iterations 3
smoothSolver:  Solving for Uy, Initial residual = 0.00105443, Final residual = 3.31447e-07, No Iterations 3
GAMG:  Solving for p, Initial residual = 0.0328609, Final residual = 7.67535e-07, No Iterations 13
time step continuity errors : sum local = 1.46321e-08, global = 1.36719e-08, cumulative = 3.21284e-07
ExecutionTime = 0.08 s  ClockTime = 0 s

Courant Number mean: 0.056521 max: 0.48422
deltaT = 0.00210752
Time = 0.0178067

PIMPLE: iteration 1
AMI: Creating addressing and weights between 96 source faces and 96 target faces
AMI: Patch source sum(weights) min:1.00022 max:1.00022 average:1.00022
AMI: Patch target sum(weights) min:1.00022 max:1.00022 average:1.00022
GAMG:  Solving for pcorr, Initial residual = 1, Final residual = 0.0172328, No Iterations 4
time step continuity errors : sum local = 5.6299e-06, global = 5.89401e-08, cumulative = 3.80224e-07
smoothSolver:  Solving for Ux, Initial residual = 0.0197262, Final residual = 4.07837e-05, No Iterations 2
smoothSolver:  Solving for Uy, Initial residual = 0.0197248, Final residual = 4.06674e-05, No Iterations 2
GAMG:  Solving for p, Initial residual = 0.0740517, Final residual = 7.99055e-07, No Iterations 15
time step continuity errors : sum local = 1.26825e-08, global = 1.1508e-08, cumulative = 3.91732e-07
PIMPLE: iteration 2
smoothSolver:  Solving for Ux, Initial residual = 0.000970494, Final residual = 2.94722e-07, No Iterations 3
smoothSolver:  Solving for Uy, Initial residual = 0.000978108, Final residual = 3.06382e-07, No Iterations 3
GAMG:  Solving for p, Initial residual = 0.0298826, Final residual = 6.91564e-07, No Iterations 10
time step continuity errors : sum local = 1.06946e-08, global = 9.75288e-09, cumulative = 4.01485e-07
ExecutionTime = 0.09 s  ClockTime = 0 s

Courant Number mean: 0.0579731 max: 0.483734
deltaT = 0.00216298
Time = 0.0199697

PIMPLE: iteration 1
AMI: Creating addressing and weights between 96 source faces and 96 target faces
AMI: Patch source sum(weights) min:1.00008 max:1.00008 average:1.00008
AMI: Patch target sum(weights) min:1.00008 max:1.00008 average:1.00008
GAMG:  Solving for pcorr, Initial residual = 1, Final residual = 0.0104359, No Iterations 6
time step continuity errors : sum local = 5.53541e-06, global = 6.00635e-08, cumulative = 4.61548e-07
smoothSolver:  Solving for Ux, Initial residual = 0.0196821, Final residual = 4.21429e-05, No Iterations 2
smoothSolver:  Solving for Uy, Initial residual = 0.0196768, Final residual = 4.26717e-05, No Iterations 2
GAMG:  Solving for p, Initial residual = 0.0609518, Final residual = 7.43161e-07, No Iterations 10
time step continuity errors : sum local = 4.34075e-09, global = 3.37845e-09, cumulative = 4.64927e-07
PIMPLE: iteration 2
smoothSolver:  Solving for Ux, Initial residual = 0.000923157, Final residual = 3.16218e-07, No Iterations 3
smoothSolver:  Solving for Uy, Initial residual = 0.000930088, Final residual = 3.25579e-07, No Iterations 3
GAMG:  Solving for p, Initial residual = 0.031626, Final residual = 8.4069e-07, No Iterations 14
time step continuity errors : sum local = 4.96353e-09, global = 3.71606e-09, cumulative = 4.68643e-07
ExecutionTime = 0.1 s  ClockTime = 0 s

Courant Number mean: 0.0595628 max: 0.483282
deltaT = 0.00222306
Time = 0.0221928

PIMPLE: iteration 1
AMI: Creating addressing and weights between 96 source faces and 96 target faces
AMI: Patch source sum(weights) min:1.00012 max:1.00012 average:1.00012
AMI: Patch target sum(weights) min:1.00012 max:1.00012 average:1.00012
GAMG:  Solving for pcorr, Initial residual = 1, Final residual = 0.0170164, No Iterations 4
time step continuity errors : sum local = 6.5798e-06, global = 5.96108e-08, cumulative = 5.28253e-07
smoothSolver:  Solving for Ux, Initial residual = 0.0198246, Final residual = 4.33585e-05, No Iterations 2
smoothSolver:  Solving for Uy, Initial residual = 0.0198192, Final residual = 4.41496e-05, No Iterations 2
GAMG:  Solving for p, Initial residual = 0.0725352, Final residual = 6.42068e-07, No Iterations 11
time step continuity errors : sum local = 1.10616e-08, global = 1.02174e-08, cumulative = 5.38471e-07
PIMPLE: iteration 2
smoothSolver:  Solving for Ux, Initial residual = 0.000908208, Final residual = 3.35939e-07, No Iterations 3
smoothSolver:  Solving for Uy, Initial residual = 0.000915208, Final residual = 3.43171e-07, No Iterations 3
GAMG:  Solving for p, Initial residual = 0.0313243, Final residual = 5.37313e-07, No Iterations 10
time step continuity errors : sum local = 1.04426e-08, global = 9.68021e-09, cumulative = 5.48151e-07
ExecutionTime = 0.11 s  ClockTime = 0 s

Courant Number mean: 0.0612894 max: 0.482772
deltaT = 0.00228845
Time = 0.0244812

PIMPLE: iteration 1
AMI: Creating addressing and weights between 96 source faces and 96 target faces
AMI: Patch source sum(weights) min:1.00024 max:1.00024 average:1.00024
AMI: Patch target sum(weights) min:1.00024 max:1.00024 average:1.00024
GAMG:  Solving for pcorr, Initial residual = 1, Final residual = 0.0157673, No Iterations 5
time step continuity errors : sum local = 6.96796e-06, global = 7.19751e-08, cumulative = 6.20126e-07
smoothSolver:  Solving for Ux, Initial residual = 0.0196226, Final residual = 4.47423e-05, No Iterations 2
smoothSolver:  Solving for Uy, Initial residual = 0.0196175, Final residual = 4.55077e-05, No Iterations 2
GAMG:  Solving for p, Initial residual = 0.071522, Final residual = 5.95409e-07, No Iterations 11
time step continuity errors : sum local = 2.40126e-08, global = 2.31625e-08, cumulative = 6.43289e-07
PIMPLE: iteration 2
smoothSolver:  Solving for Ux, Initial residual = 0.000869704, Final residual = 3.78794e-07, No Iterations 3
smoothSolver:  Solving for Uy, Initial residual = 0.000876218, Final residual = 3.86493e-07, No Iterations 3
GAMG:  Solving for p, Initial residual = 0.0326313, Final residual = 9.24284e-07, No Iterations 11
time step continuity errors : sum local = 1.95116e-08, global = 1.81251e-08, cumulative = 6.61414e-07
ExecutionTime = 0.12 s  ClockTime = 0 s

Courant Number mean: 0.0631949 max: 0.482101
deltaT = 0.00235996
Time = 0.0268412

PIMPLE: iteration 1
AMI: Creating addressing and weights between 96 source faces and 96 target faces
AMI: Patch source sum(weights) min:1.00026 max:1.00026 average:1.00026
AMI: Patch target sum(weights) min:1.00026 max:1.00026 average:1.00026
GAMG:  Solving for pcorr, Initial residual = 1, Final residual = 0.0159307, No Iterations 4
time step continuity errors : sum local = 7.67769e-06, global = 8.54179e-08, cumulative = 7.46832e-07
smoothSolver:  Solving for Ux, Initial residual = 0.0197375, Final residual = 4.80393e-05, No Iterations 2
smoothSolver:  Solving for Uy, Initial residual = 0.0197344, Final residual = 4.86368e-05, No Iterations 2
GAMG:  Solving for p, Initial residual = 0.0673562, Final residual = 6.37168e-07, No Iterations 15
time step continuity errors : sum local = 2.09222e-08, global = 1.99292e-08, cumulative = 7.66761e-07
PIMPLE: iteration 2
smoothSolver:  Solving for Ux, Initial residual = 0.000880276, Final residual = 4.23807e-07, No Iterations 3
smoothSolver:  Solving for Uy, Initial residual = 0.000885575, Final residual = 4.29805e-07, No Iterations 3
GAMG:  Solving for p, Initial residual = 0.033761, Final residual = 4.22626e-07, No Iterations 10
time step continuity errors : sum local = 1.53432e-08, global = 1.46927e-08, cumulative = 7.81454e-07
ExecutionTime = 0.12 s  ClockTime = 0 s

Courant Number mean: 0.0653236 max: 0.48208
deltaT = 0.00243863
Time = 0.0292798

PIMPLE: iteration 1
AMI: Creating addressing and weights between 96 source faces and 96 target faces
AMI: Patch source sum(weights) min:1.00016 max:1.00016 average:1.00016
AMI: Patch target sum(weights) min:1.00016 max:1.00016 average:1.00016
GAMG:  Solving for pcorr, Initial residual = 1, Final residual = 0.0171205, No Iterations 5
time step continuity errors : sum local = 8.41192e-06, global = 8.41947e-08, cumulative = 8.65648e-07
smoothSolver:  Solving for Ux, Initial residual = 0.0200569, Final residual = 5.37037e-05, No Iterations 2
smoothSolver:  Solving for Uy, Initial residual = 0.0200537, Final residual = 5.41613e-05, No Iterations 2
GAMG:  Solving for p, Initial residual = 0.0648141, Final residual = 6.15951e-07, No Iterations 11
time step continuity errors : sum local = 1.00138e-08, global = 9.05227e-09, cumulative = 8.74701e-07
PIMPLE: iteration 2
smoothSolver:  Solving for Ux, Initial residual = 0.000911348, Final residual = 4.62319e-07, No Iterations 3
smoothSolver:  Solving for Uy, Initial residual = 0.000917821, Final residual = 4.68458e-07, No Iterations 3
GAMG:  Solving for p, Initial residual = 0.0330731, Final residual = 7.28882e-07, No Iterations 13
time step continuity errors : sum local = 1.27405e-08, global = 1.15668e-08, cumulative = 8.86267e-07
ExecutionTime = 0.13 s  ClockTime = 0 s

Courant Number mean: 0.0677813 max: 0.4827
deltaT = 0.00252572
Time = 0.0318055

PIMPLE: iteration 1
AMI: Creating addressing and weights between 96 source faces and 96 target faces
AMI: Patch source sum(weights) min:1.00005 max:1.00005 average:1.00005
AMI: Patch target sum(weights) min:1.00005 max:1.00005 average:1.00005
GAMG:  Solving for pcorr, Initial residual = 1, Final residual = 0.0159687, No Iterations 4
time step continuity errors : sum local = 9.15426e-06, global = 8.05362e-08, cumulative = 9.66804e-07
smoothSolver:  Solving for Ux, Initial residual = 0.0205187, Final residual = 6.02004e-05, No Iterations 2
smoothSolver:  Solving for Uy, Initial residual = 0.0205188, Final residual = 6.06203e-05, No Iterations 2
GAMG:  Solving for p, Initial residual = 0.0651565, Final residual = 6.64394e-07, No Iterations 16
time step continuity errors : sum local = 7.79223e-09, global = 6.63416e-09, cumulative = 9.73438e-07
PIMPLE: iteration 2
smoothSolver:  Solving for Ux, Initial residual = 0.000924647, Final residual = 4.80365e-07, No Iterations 3
smoothSolver:  Solving for Uy, Initial residual = 0.000931352, Final residual = 4.84279e-07, No Iterations 3
GAMG:  Solving for p, Initial residual = 0.0329429, Final residual = 5.71091e-07, No Iterations 11
time step continuity errors : sum local = 8.00266e-09, global = 7.13931e-09, cumulative = 9.80577e-07
ExecutionTime = 0.14 s  ClockTime = 0 s

Courant Number mean: 0.0705015 max: 0.485547
deltaT = 0.00262286
Time = 0.0344284

PIMPLE: iteration 1
AMI: Creating addressing and weights between 96 source faces and 96 target faces
AMI: Patch source sum(weights) min:1.00023 max:1.00023 average:1.00023
AMI: Patch target sum(weights) min:1.00023 max:1.00023 average:1.00023
GAMG:  Solving for pcorr, Initial residual = 1, Final residual = 0.0108859, No Iterations 6
time step continuity errors : sum local = 9.49111e-06, global = 7.26612e-08, cumulative = 1.05324e-06
smoothSolver:  Solving for Ux, Initial residual = 0.0207483, Final residual = 6.58428e-05, No Iterations 2
smoothSolver:  Solving for Uy, Initial residual = 0.0207489, Final residual = 6.63275e-05, No Iterations 2
GAMG:  Solving for p, Initial residual = 0.0925309, Final residual = 3.90424e-07, No Iterations 11
time step continuity errors : sum local = 5.06019e-08, global = 4.99222e-08, cumulative = 1.10316e-06
PIMPLE: iteration 2
smoothSolver:  Solving for Ux, Initial residual = 0.00101429, Final residual = 5.53517e-07, No Iterations 3
smoothSolver:  Solving for Uy, Initial residual = 0.00101958, Final residual = 5.58652e-07, No Iterations 3
GAMG:  Solving for p, Initial residual = 0.0338551, Final residual = 7.61052e-07, No Iterations 15
time step continuity errors : sum local = 4.88964e-08, global = 4.7718e-08, cumulative = 1.15088e-06
ExecutionTime = 0.15 s  ClockTime = 0 s

Courant Number mean: 0.0735011 max: 0.498275
deltaT = 0.00262286
Time = 0.0370513

PIMPLE: iteration 1
AMI: Creating addressing and weights between 96 source faces and 96 target faces
AMI: Patch source sum(weights) min:1.00026 max:1.00026 average:1.00026
AMI: Patch target sum(weights) min:1.00026 max:1.00026 average:1.00026
GAMG:  Solving for pcorr, Initial residual = 1, Final residual = 0.0162751, No Iterations 4
time step continuity errors : sum local = 1.0375e-05, global = 9.84095e-08, cumulative = 1.24929e-06
smoothSolver:  Solving for Ux, Initial residual = 0.0199421, Final residual = 6.47203e-05, No Iterations 2
smoothSolver:  Solving for Uy, Initial residual = 0.0199466, Final residual = 6.54464e-05, No Iterations 2
GAMG:  Solving for p, Initial residual = 0.062574, Final residual = 7.87046e-07, No Iterations 13
time step continuity errors : sum local = 6.11213e-08, global = 5.98965e-08, cumulative = 1.30918e-06
PIMPLE: iteration 2
smoothSolver:  Solving for Ux, Initial residual = 0.000886536, Final residual = 5.15785e-07, No Iterations 3
smoothSolver:  Solving for Uy, Initial residual = 0.000893386, Final residual = 5.1977e-07, No Iterations 3
GAMG:  Solving for p, Initial residual = 0.0317642, Final residual = 4.21617e-07, No Iterations 11
time step continuity errors : sum local = 5.23329e-08, global = 5.16506e-08, cumulative = 1.36084e-06
ExecutionTime = 0.16 s  ClockTime = 0 s

Courant Number mean: 0.0738298 max: 0.49806
deltaT = 0.00262286
Time = 0.0396741

PIMPLE: iteration 1
AMI: Creating addressing and weights between 96 source faces and 96 target faces
AMI: Patch source sum(weights) min:1.00017 max:1.00017 average:1.00017
AMI: Patch target sum(weights) min:1.00017 max:1.00017 average:1.00017
GAMG:  Solving for pcorr, Initial residual = 1, Final residual = 0.0168545, No Iterations 5
time step continuity errors : sum local = 1.05531e-05, global = 8.0971e-08, cumulative = 1.44181e-06
smoothSolver:  Solving for Ux, Initial residual = 0.0196773, Final residual = 6.3909e-05, No Iterations 2
smoothSolver:  Solving for Uy, Initial residual = 0.0196824, Final residual = 6.46754e-05, No Iterations 2
GAMG:  Solving for p, Initial residual = 0.0682178, Final residual = 8.00017e-07, No Iterations 10
time step continuity errors : sum local = 3.49373e-08, global = 3.35923e-08, cumulative = 1.4754e-06
PIMPLE: iteration 2
smoothSolver:  Solving for Ux, Initial residual = 0.000898025, Final residual = 5.25692e-07, No Iterations 3
smoothSolver:  Solving for Uy, Initial residual = 0.000903601, Final residual = 5.2828e-07, No Iterations 3
GAMG:  Solving for p, Initial residual = 0.0345163, Final residual = 8.19974e-07, No Iterations 13
time step continuity errors : sum local = 3.40437e-08, global = 3.27961e-08, cumulative = 1.50819e-06
ExecutionTime = 0.16 s  ClockTime = 0 s

Courant Number mean: 0.0741971 max: 0.496315
deltaT = 0.00262286
Time = 0.042297

PIMPLE: iteration 1
AMI: Creating addressing and weights between 96 source faces and 96 target faces
AMI: Patch source sum(weights) min:1.00006 max:1.00006 average:1.00006
AMI: Patch target sum(weights) min:1.00006 max:1.00006 average:1.00006
GAMG:  Solving for pcorr, Initial residual = 1, Final residual = 0.0157781, No Iterations 4
time step continuity errors : sum local = 1.06477e-05, global = 3.68257e-08, cumulative = 1.54502e-06
smoothSolver:  Solving for Ux, Initial residual = 0.0194085, Final residual = 6.48559e-05, No Iterations 2
smoothSolver:  Solving for Uy, Initial residual = 0.0194131, Final residual = 6.56844e-05, No Iterations 2
GAMG:  Solving for p, Initial residual = 0.0540968, Final residual = 9.06309e-07, No Iterations 13
time step continuity errors : sum local = 1.61386e-08, global = 1.45664e-08, cumulative = 1.55959e-06
PIMPLE: iteration 2
smoothSolver:  Solving for Ux, Initial residual = 0.000831691, Final residual = 5.07045e-07, No Iterations 3
smoothSolver:  Solving for Uy, Initial residual = 0.000837635, Final residual = 5.08915e-07, No Iterations 3
GAMG:  Solving for p, Initial residual = 0.033142, Final residual = 5.94503e-07, No Iterations 10
time step continuity errors : sum local = 1.58275e-08, global = 1.48163e-08, cumulative = 1.5744e-06
ExecutionTime = 0.17 s  ClockTime = 0 s

Courant Number mean: 0.074585 max: 0.492571
deltaT = 0.00262286
Time = 0.0449199

PIMPLE: iteration 1
AMI: Creating addressing and weights between 96 source faces and 96 target faces
AMI: Patch source sum(weights) min:1.00023 max:1.00023 average:1.00023
AMI: Patch target sum(weights) min:1.00023 max:1.00023 average:1.00023
GAMG:  Solving for pcorr, Initial residual = 1, Final residual = 0.0174965, No Iterations 5
time step continuity errors : sum local = 1.11041e-05, global = -7.61261e-09, cumulative = 1.56679e-06
smoothSolver:  Solving for Ux, Initial residual = 0.0190911, Final residual = 6.62383e-05, No Iterations 2
smoothSolver:  Solving for Uy, Initial residual = 0.019097, Final residual = 6.70869e-05, No Iterations 2
GAMG:  Solving for p, Initial residual = 0.0831227, Final residual = 9.34807e-07, No Iterations 11
time step continuity errors : sum local = 7.32996e-08, global = 7.17111e-08, cumulative = 1.6385e-06
PIMPLE: iteration 2
smoothSolver:  Solving for Ux, Initial residual = 0.000853665, Final residual = 5.18346e-07, No Iterations 3
smoothSolver:  Solving for Uy, Initial residual = 0.000861829, Final residual = 5.20206e-07, No Iterations 3
GAMG:  Solving for p, Initial residual = 0.0340544, Final residual = 8.35735e-07, No Iterations 12
time step continuity errors : sum local = 6.86224e-08, global = 6.72106e-08, cumulative = 1.70571e-06
ExecutionTime = 0.18 s  ClockTime = 0 s

Courant Number mean: 0.0749615 max: 0.486934
deltaT = 0.00275401
Time = 0.0476739

PIMPLE: iteration 1
AMI: Creating addressing and weights between 96 source faces and 96 target faces
AMI: Patch source sum(weights) min:1.00026 max:1.00026 average:1.00026
AMI: Patch target sum(weights) min:1.00026 max:1.00026 average:1.00026
GAMG:  Solving for pcorr, Initial residual = 1, Final residual = 0.016833, No Iterations 4
time step continuity errors : sum local = 1.24502e-05, global = 1.25945e-08, cumulative = 1.71831e-06
smoothSolver:  Solving for Ux, Initial residual = 0.0195919, Final residual = 7.72509e-05, No Iterations 2
smoothSolver:  Solving for Uy, Initial residual = 0.0196023, Final residual = 7.82401e-05, No Iterations 2
GAMG:  Solving for p, Initial residual = 0.0627647, Final residual = 8.46502e-07, No Iterations 13
time step continuity errors : sum local = 9.74679e-08, global = 9.61082e-08, cumulative = 1.81441e-06
PIMPLE: iteration 2
smoothSolver:  Solving for Ux, Initial residual = 0.000873324, Final residual = 5.92362e-07, No Iterations 3
smoothSolver:  Solving for Uy, Initial residual = 0.000881167, Final residual = 5.9362e-07, No Iterations 3
GAMG:  Solving for p, Initial residual = 0.0340882, Final residual = 6.25195e-07, No Iterations 11
time step continuity errors : sum local = 8.57835e-08, global = 8.48661e-08, cumulative = 1.89928e-06
ExecutionTime = 0.19 s  ClockTime = 0 s

Courant Number mean: 0.0791551 max: 0.50386
deltaT = 0.00275401
Time = 0.0504279

PIMPLE: iteration 1
AMI: Creating addressing and weights between 96 source faces and 96 target faces
AMI: Patch source sum(weights) min:1.00014 max:1.00014 average:1.00014
AMI: Patch target sum(weights) min:1.00014 max:1.00014 average:1.00014
GAMG:  Solving for pcorr, Initial residual = 1, Final residual = 0.0165028, No Iterations 5
time step continuity errors : sum local = 1.23883e-05, global = -1.24025e-08, cumulative = 1.88688e-06
smoothSolver:  Solving for Ux, Initial residual = 0.0195452, Final residual = 7.82166e-05, No Iterations 2
smoothSolver:  Solving for Uy, Initial residual = 0.0195564, Final residual = 7.89279e-05, No Iterations 2
GAMG:  Solving for p, Initial residual = 0.0546458, Final residual = 7.91253e-07, No Iterations 12
time step continuity errors : sum local = 5.26965e-08, global = 5.14873e-08, cumulative = 1.93837e-06
PIMPLE: iteration 2
smoothSolver:  Solving for Ux, Initial residual = 0.000841275, Final residual = 5.72605e-07, No Iterations 3
smoothSolver:  Solving for Uy, Initial residual = 0.000850096, Final residual = 5.74521e-07, No Iterations 3
GAMG:  Solving for p, Initial residual = 0.0334157, Final residual = 9.01347e-07, No Iterations 13
time step continuity errors : sum local = 5.26369e-08, global = 5.09724e-08, cumulative = 1.98934e-06
ExecutionTime = 0.2 s  ClockTime = 0 s

Courant Number mean: 0.0796699 max: 0.498935
deltaT = 0.00275401
Time = 0.0531819

PIMPLE: iteration 1
AMI: Creating addressing and weights between 96 source faces and 96 target faces
AMI: Patch source sum(weights) min:1.0001 max:1.0001 average:1.0001
AMI: Patch target sum(weights) min:1.0001 max:1.0001 average:1.0001
GAMG:  Solving for pcorr, Initial residual = 1, Final residual = 0.0165892, No Iterations 4
time step continuity errors : sum local = 1.27488e-05, global = -8.5893e-08, cumulative = 1.90345e-06
smoothSolver:  Solving for Ux, Initial residual = 0.019453, Final residual = 7.91069e-05, No Iterations 2
smoothSolver:  Solving for Uy, Initial residual = 0.0194603, Final residual = 7.96539e-05, No Iterations 2
GAMG:  Solving for p, Initial residual = 0.0737476, Final residual = 8.01015e-07, No Iterations 14
time step continuity errors : sum local = 4.44806e-08, global = 4.31782e-08, cumulative = 1.94662e-06
PIMPLE: iteration 2
smoothSolver:  Solving for Ux, Initial residual = 0.000831241, Final residual = 5.5233e-07, No Iterations 3
smoothSolver:  Solving for Uy, Initial residual = 0.00084044, Final residual = 5.52856e-07, No Iterations 3
GAMG:  Solving for p, Initial residual = 0.031083, Final residual = 6.99731e-07, No Iterations 11
time step continuity errors : sum local = 4.38413e-08, global = 4.27921e-08, cumulative = 1.98942e-06
ExecutionTime = 0.21 s  ClockTime = 0 s

Courant Number mean: 0.0801723 max: 0.496309
deltaT = 0.00275401
Time = 0.0559359

PIMPLE: iteration 1
AMI: Creating addressing and weights between 96 source faces and 96 target faces
AMI: Patch source sum(weights) min:1.00025 max:1.00025 average:1.00025
AMI: Patch target sum(weights) min:1.00025 max:1.00025 average:1.00025
GAMG:  Solving for pcorr, Initial residual = 1, Final residual = 0.0166107, No Iterations 5
time step continuity errors : sum local = 1.28267e-05, global = -1.31448e-07, cumulative = 1.85797e-06
smoothSolver:  Solving for Ux, Initial residual = 0.0190134, Final residual = 7.90626e-05, No Iterations 2
smoothSolver:  Solving for Uy, Initial residual = 0.0190234, Final residual = 7.96382e-05, No Iterations 2
GAMG:  Solving for p, Initial residual = 0.0809526, Final residual = 8.16798e-07, No Iterations 14
time step continuity errors : sum local = 1.23278e-07, global = 1.21695e-07, cumulative = 1.97966e-06
PIMPLE: iteration 2
smoothSolver:  Solving for Ux, Initial residual = 0.000825618, Final residual = 5.65545e-07, No Iterations 3
smoothSolver:  Solving for Uy, Initial residual = 0.000833936, Final residual = 5.68396e-07, No Iterations 3
GAMG:  Solving for p, Initial residual = 0.0323018, Final residual = 7.42709e-07, No Iterations 13
time step continuity errors : sum local = 1.17732e-07, global = 1.1654e-07, cumulative = 2.0962e-06
ExecutionTime = 0.21 s  ClockTime = 0 s

Courant Number mean: 0.0806375 max: 0.491227
deltaT = 0.00275401
Time = 0.0586899

PIMPLE: iteration 1
AMI: Creating addressing and weights between 96 source faces and 96 target faces
AMI: Patch source sum(weights) min:1.00025 max:1.00025 average:1.00025
AMI: Patch target sum(weights) min:1.00025 max:1.00025 average:1.00025
GAMG:  Solving for pcorr, Initial residual = 1, Final residual = 0.0170981, No Iterations 4
time step continuity errors : sum local = 1.32256e-05, global = -9.69183e-08, cumulative = 1.99928e-06
smoothSolver:  Solving for Ux, Initial residual = 0.0186321, Final residual = 8.0925e-05, No Iterations 2
smoothSolver:  Solving for Uy, Initial residual = 0.0186466, Final residual = 8.14923e-05, No Iterations 2
GAMG:  Solving for p, Initial residual = 0.0632367, Final residual = 9.9168e-07, No Iterations 14
time step continuity errors : sum local = 1.26816e-07, global = 1.25261e-07, cumulative = 2.12454e-06
PIMPLE: iteration 2
smoothSolver:  Solving for Ux, Initial residual = 0.00077032, Final residual = 5.40931e-07, No Iterations 3
smoothSolver:  Solving for Uy, Initial residual = 0.000778877, Final residual = 5.42361e-07, No Iterations 3
GAMG:  Solving for p, Initial residual = 0.0310932, Final residual = 5.78897e-07, No Iterations 11
time step continuity errors : sum local = 1.2161e-07, global = 1.20745e-07, cumulative = 2.24529e-06
ExecutionTime = 0.22 s  ClockTime = 0 s

Courant Number mean: 0.0811198 max: 0.485601
deltaT = 0.00275401
Time = 0.0614439

PIMPLE: iteration 1
AMI: Creating addressing and weights between 96 source faces and 96 target faces
AMI: Patch source sum(weights) min:1.0001 max:1.0001 average:1.0001
AMI: Patch target sum(weights) min:1.0001 max:1.0001 average:1.0001
GAMG:  Solving for pcorr, Initial residual = 1, Final residual = 0.0171255, No Iterations 5
time step continuity errors : sum local = 1.31081e-05, global = -1.32881e-07, cumulative = 2.11241e-06
smoothSolver:  Solving for Ux, Initial residual = 0.018661, Final residual = 8.30941e-05, No Iterations 2
smoothSolver:  Solving for Uy, Initial residual = 0.0186739, Final residual = 8.34307e-05, No Iterations 2
GAMG:  Solving for p, Initial residual = 0.0595022, Final residual = 6.50157e-07, No Iterations 14
time step continuity errors : sum local = 5.10912e-08, global = 5.01232e-08, cumulative = 2.16253e-06
PIMPLE: iteration 2
smoothSolver:  Solving for Ux, Initial residual = 0.000758828, Final residual = 5.46275e-07, No Iterations 3
smoothSolver:  Solving for Uy, Initial residual = 0.000767516, Final residual = 5.47913e-07, No Iterations 3
GAMG:  Solving for p, Initial residual = 0.0309312, Final residual = 7.00803e-07, No Iterations 14
time step continuity errors : sum local = 5.20737e-08, global = 5.09573e-08, cumulative = 2.21349e-06
ExecutionTime = 0.23 s  ClockTime = 0 s

Courant Number mean: 0.0816362 max: 0.488226
deltaT = 0.00275401
Time = 0.0641979

PIMPLE: iteration 1
AMI: Creating addressing and weights between 96 source faces and 96 target faces
AMI: Patch source sum(weights) min:1.00015 max:1.00015 average:1.00015
AMI: Patch target sum(weights) min:1.00015 max:1.00015 average:1.00015
GAMG:  Solving for pcorr, Initial residual = 1, Final residual = 0.0160784, No Iterations 4
time step continuity errors : sum local = 1.33702e-05, global = -2.38927e-07, cumulative = 1.97456e-06
smoothSolver:  Solving for Ux, Initial residual = 0.0187028, Final residual = 8.54149e-05, No Iterations 2
smoothSolver:  Solving for Uy, Initial residual = 0.0187122, Final residual = 8.56002e-05, No Iterations 2
GAMG:  Solving for p, Initial residual = 0.0704071, Final residual = 9.97437e-07, No Iterations 16
time step continuity errors : sum local = 8.60705e-08, global = 8.41365e-08, cumulative = 2.0587e-06
PIMPLE: iteration 2
smoothSolver:  Solving for Ux, Initial residual = 0.000768588, Final residual = 5.59626e-07, No Iterations 3
smoothSolver:  Solving for Uy, Initial residual = 0.000775945, Final residual = 5.59884e-07, No Iterations 3
GAMG:  Solving for p, Initial residual = 0.0303711, Final residual = 6.88524e-07, No Iterations 11
time step continuity errors : sum local = 8.37387e-08, global = 8.26817e-08, cumulative = 2.14138e-06
ExecutionTime = 0.24 s  ClockTime = 0 s

Courant Number mean: 0.0821328 max: 0.489021
deltaT = 0.00275401
Time = 0.0669519

PIMPLE: iteration 1
AMI: Creating addressing and weights between 96 source faces and 96 target faces
AMI: Patch source sum(weights) min:1.00026 max:1.00026 average:1.00026
AMI: Patch target sum(weights) min:1.00026 max:1.00026 average:1.00026
GAMG:  Solving for pcorr, Initial residual = 1, Final residual = 0.0147136, No Iterations 5
time step continuity errors : sum local = 1.30876e-05, global = -2.37417e-07, cumulative = 1.90396e-06
smoothSolver:  Solving for Ux, Initial residual = 0.0182865, Final residual = 8.64906e-05, No Iterations 2
smoothSolver:  Solving for Uy, Initial residual = 0.0183, Final residual = 8.67405e-05, No Iterations 2
GAMG:  Solving for p, Initial residual = 0.0644466, Final residual = 9.29908e-07, No Iterations 10
time step continuity errors : sum local = 1.59771e-07, global = 1.58048e-07, cumulative = 2.06201e-06
PIMPLE: iteration 2
smoothSolver:  Solving for Ux, Initial residual = 0.000735873, Final residual = 5.29675e-07, No Iterations 3
smoothSolver:  Solving for Uy, Initial residual = 0.000743796, Final residual = 5.30273e-07, No Iterations 3
GAMG:  Solving for p, Initial residual = 0.0304646, Final residual = 9.78324e-07, No Iterations 13
time step continuity errors : sum local = 1.51323e-07, global = 1.4949e-07, cumulative = 2.2115e-06
ExecutionTime = 0.25 s  ClockTime = 0 s

Courant Number mean: 0.0825795 max: 0.487547
deltaT = 0.00275401
Time = 0.0697059

PIMPLE: iteration 1
AMI: Creating addressing and weights between 96 source faces and 96 target faces
AMI: Patch source sum(weights) min:1.00023 max:1.00023 average:1.00023
AMI: Patch target sum(weights) min:1.00023 max:1.00023 average:1.00023
GAMG:  Solving for pcorr, Initial residual = 1, Final residual = 0.0155931, No Iterations 4
time step continuity errors : sum local = 1.34853e-05, global = -1.98083e-07, cumulative = 2.01342e-06
smoothSolver:  Solving for Ux, Initial residual = 0.0181397, Final residual = 8.73451e-05, No Iterations 2
smoothSolver:  Solving for Uy, Initial residual = 0.0181557, Final residual = 8.75218e-05, No Iterations 2
GAMG:  Solving for p, Initial residual = 0.0555135, Final residual = 7.23789e-07, No Iterations 13
time step continuity errors : sum local = 1.37701e-07, global = 1.36331e-07, cumulative = 2.14975e-06
PIMPLE: iteration 2
smoothSolver:  Solving for Ux, Initial residual = 0.000704543, Final residual = 5.0481e-07, No Iterations 3
smoothSolver:  Solving for Uy, Initial residual = 0.000712767, Final residual = 5.05326e-07, No Iterations 3
GAMG:  Solving for p, Initial residual = 0.0287817, Final residual = 6.39404e-07, No Iterations 10
time step continuity errors : sum local = 1.29074e-07, global = 1.27878e-07, cumulative = 2.27763e-06
ExecutionTime = 0.26 s  ClockTime = 0 s

Courant Number mean: 0.0830753 max: 0.483379
deltaT = 0.00275401
Time = 0.0724599

PIMPLE: iteration 1
AMI: Creating addressing and weights between 96 source faces and 96 target faces
AMI: Patch source sum(weights) min:1.00004 max:1.00004 average:1.00004
AMI: Patch target sum(weights) min:1.00004 max:1.00004 average:1.00004
GAMG:  Solving for pcorr, Initial residual = 1, Final residual = 0.0153912, No Iterations 5
time step continuity errors : sum local = 1.33254e-05, global = -2.42041e-07, cumulative = 2.03559e-06
smoothSolver:  Solving for Ux, Initial residual = 0.0181178, Final residual = 8.89555e-05, No Iterations 2
smoothSolver:  Solving for Uy, Initial residual = 0.018133, Final residual = 8.89234e-05, No Iterations 2
GAMG:  Solving for p, Initial residual = 0.0513386, Final residual = 6.48426e-07, No Iterations 10
time step continuity errors : sum local = 2.8568e-08, global = 2.72531e-08, cumulative = 2.06284e-06
PIMPLE: iteration 2
smoothSolver:  Solving for Ux, Initial residual = 0.000672093, Final residual = 4.96808e-07, No Iterations 3
smoothSolver:  Solving for Uy, Initial residual = 0.000680725, Final residual = 4.94499e-07, No Iterations 3
GAMG:  Solving for p, Initial residual = 0.0268611, Final residual = 7.53467e-07, No Iterations 13
time step continuity errors : sum local = 2.87488e-08, global = 2.735e-08, cumulative = 2.09019e-06
ExecutionTime = 0.27 s  ClockTime = 0 s

Courant Number mean: 0.0835988 max: 0.476538
deltaT = 0.00275401
Time = 0.0752139

PIMPLE: iteration 1
AMI: Creating addressing and weights between 96 source faces and 96 target faces
AMI: Patch source sum(weights) min:1.00018 max:1.00018 average:1.00018
AMI: Patch target sum(weights) min:1.00018 max:1.00018 average:1.00018
GAMG:  Solving for pcorr, Initial residual = 1, Final residual = 0.01587, No Iterations 4
time step continuity errors : sum local = 1.39246e-05, global = -3.5506e-07, cumulative = 1.73513e-06
smoothSolver:  Solving for Ux, Initial residual = 0.0180201, Final residual = 9.08086e-05, No Iterations 2
smoothSolver:  Solving for Uy, Initial residual = 0.0180332, Final residual = 9.06734e-05, No Iterations 2
GAMG:  Solving for p, Initial residual = 0.0811916, Final residual = 8.93031e-07, No Iterations 16
time step continuity errors : sum local = 1.18518e-07, global = 1.16811e-07, cumulative = 1.85194e-06
PIMPLE: iteration 2
smoothSolver:  Solving for Ux, Initial residual = 0.000723352, Final residual = 5.39178e-07, No Iterations 3
smoothSolver:  Solving for Uy, Initial residual = 0.00073025, Final residual = 5.39155e-07, No Iterations 3
GAMG:  Solving for p, Initial residual = 0.0289393, Final residual = 5.3053e-07, No Iterations 10
time step continuity errors : sum local = 1.16707e-07, global = 1.15728e-07, cumulative = 1.96767e-06
ExecutionTime = 0.28 s  ClockTime = 0 s

Courant Number mean: 0.0840608 max: 0.478253
deltaT = 0.00275401
Time = 0.0779679

PIMPLE: iteration 1
AMI: Creating addressing and weights between 96 source faces and 96 target faces
AMI: Patch source sum(weights) min:1.00027 max:1.00027 average:1.00027
AMI: Patch target sum(weights) min:1.00027 max:1.00027 average:1.00027
GAMG:  Solving for pcorr, Initial residual = 1, Final residual = 0.0173401, No Iterations 5
time step continuity errors : sum local = 1.41033e-05, global = -2.69598e-07, cumulative = 1.69807e-06
smoothSolver:  Solving for Ux, Initial residual = 0.0175077, Final residual = 9.2335e-05, No Iterations 2
smoothSolver:  Solving for Uy, Initial residual = 0.0175316, Final residual = 9.23354e-05, No Iterations 2
GAMG:  Solving for p, Initial residual = 0.0667784, Final residual = 6.32642e-07, No Iterations 9
time step continuity errors : sum local = 1.76508e-07, global = 1.75269e-07, cumulative = 1.87334e-06
PIMPLE: iteration 2
smoothSolver:  Solving for Ux, Initial residual = 0.000668785, Final residual = 4.97571e-07, No Iterations 3
smoothSolver:  Solving for Uy, Initial residual = 0.000677285, Final residual = 4.9621e-07, No Iterations 3
GAMG:  Solving for p, Initial residual = 0.0282273, Final residual = 7.10061e-07, No Iterations 13
time step continuity errors : sum local = 1.68313e-07, global = 1.67004e-07, cumulative = 2.04035e-06
ExecutionTime = 0.28 s  ClockTime = 0 s

Courant Number mean: 0.0845065 max: 0.479295
deltaT = 0.00275401
Time = 0.080722

PIMPLE: iteration 1
AMI: Creating addressing and weights between 96 source faces and 96 target faces
AMI: Patch source sum(weights) min:1.0002 max:1.0002 average:1.0002
AMI: Patch target sum(weights) min:1.0002 max:1.0002 average:1.0002
GAMG:  Solving for pcorr, Initial residual = 1, Final residual = 0.0162115, No Iterations 4
time step continuity errors : sum local = 1.41384e-05, global = -2.14607e-07, cumulative = 1.82574e-06
smoothSolver:  Solving for Ux, Initial residual = 0.0174809, Final residual = 9.40855e-05, No Iterations 2
smoothSolver:  Solving for Uy, Initial residual = 0.0175024, Final residual = 9.39696e-05, No Iterations 2
GAMG:  Solving for p, Initial residual = 0.0540685, Final residual = 6.56956e-07, No Iterations 15
time step continuity errors : sum local = 1.3106e-07, global = 1.29999e-07, cumulative = 1.95574e-06
PIMPLE: iteration 2
smoothSolver:  Solving for Ux, Initial residual = 0.000649464, Final residual = 4.9208e-07, No Iterations 3
smoothSolver:  Solving for Uy, Initial residual = 0.000657103, Final residual = 4.87765e-07, No Iterations 3
GAMG:  Solving for p, Initial residual = 0.0273297, Final residual = 7.40713e-07, No Iterations 10
time step continuity errors : sum local = 1.29634e-07, global = 1.28208e-07, cumulative = 2.08394e-06
ExecutionTime = 0.29 s  ClockTime = 0 s

Courant Number mean: 0.0849993 max: 0.478222
deltaT = 0.00275401
Time = 0.083476

PIMPLE: iteration 1
AMI: Creating addressing and weights between 96 source faces and 96 target faces
AMI: Patch source sum(weights) min:1.00001 max:1.00001 average:1.00001
AMI: Patch target sum(weights) min:1.00001 max:1.00001 average:1.00001
GAMG:  Solving for pcorr, Initial residual = 1, Final residual = 0.0116119, No Iterations 6
time step continuity errors : sum local = 1.31798e-05, global = -2.40054e-07, cumulative = 1.84389e-06
smoothSolver:  Solving for Ux, Initial residual = 0.0175822, Final residual = 9.58092e-05, No Iterations 2
smoothSolver:  Solving for Uy, Initial residual = 0.0175982, Final residual = 9.55624e-05, No Iterations 2
GAMG:  Solving for p, Initial residual = 0.0457992, Final residual = 5.87863e-07, No Iterations 11
time step continuity errors : sum local = 1.05338e-08, global = 9.42793e-09, cumulative = 1.85332e-06
PIMPLE: iteration 2
smoothSolver:  Solving for Ux, Initial residual = 0.000639227, Final residual = 4.85181e-07, No Iterations 3
smoothSolver:  Solving for Uy, Initial residual = 0.000647048, Final residual = 4.82897e-07, No Iterations 3
GAMG:  Solving for p, Initial residual = 0.0260968, Final residual = 8.05213e-07, No Iterations 13
time step continuity errors : sum local = 1.08403e-08, global = 9.32327e-09, cumulative = 1.86264e-06
ExecutionTime = 0.3 s  ClockTime = 0 s

Courant Number mean: 0.0855063 max: 0.474979
deltaT = 0.00275401
Time = 0.08623

PIMPLE: iteration 1
AMI: Creating addressing and weights between 96 source faces and 96 target faces
AMI: Patch source sum(weights) min:1.00022 max:1.00022 average:1.00022
AMI: Patch target sum(weights) min:1.00022 max:1.00022 average:1.00022
GAMG:  Solving for pcorr, Initial residual = 1, Final residual = 0.0157458, No Iterations 4
time step continuity errors : sum local = 1.43451e-05, global = -3.30129e-07, cumulative = 1.53251e-06
smoothSolver:  Solving for Ux, Initial residual = 0.0175085, Final residual = 9.69956e-05, No Iterations 2
smoothSolver:  Solving for Uy, Initial residual = 0.017519, Final residual = 9.66831e-05, No Iterations 2
GAMG:  Solving for p, Initial residual = 0.0810403, Final residual = 6.74782e-07, No Iterations 17
time step continuity errors : sum local = 1.45937e-07, global = 1.44818e-07, cumulative = 1.67733e-06
PIMPLE: iteration 2
smoothSolver:  Solving for Ux, Initial residual = 0.000680556, Final residual = 5.19498e-07, No Iterations 3
smoothSolver:  Solving for Uy, Initial residual = 0.000687613, Final residual = 5.19676e-07, No Iterations 3
GAMG:  Solving for p, Initial residual = 0.0278166, Final residual = 6.20133e-07, No Iterations 9
time step continuity errors : sum local = 1.41716e-07, global = 1.4053e-07, cumulative = 1.81786e-06
ExecutionTime = 0.31 s  ClockTime = 0 s

Courant Number mean: 0.0859652 max: 0.469993
deltaT = 0.00275401
Time = 0.088984

PIMPLE: iteration 1
AMI: Creating addressing and weights between 96 source faces and 96 target faces
AMI: Patch source sum(weights) min:1.00027 max:1.00027 average:1.00027
AMI: Patch target sum(weights) min:1.00027 max:1.00027 average:1.00027
GAMG:  Solving for pcorr, Initial residual = 1, Final residual = 0.0185374, No Iterations 5
time step continuity errors : sum local = 1.47696e-05, global = -1.58852e-07, cumulative = 1.65901e-06
smoothSolver:  Solving for Ux, Initial residual = 0.0169376, Final residual = 9.79896e-05, No Iterations 2
smoothSolver:  Solving for Uy, Initial residual = 0.0169652, Final residual = 9.78016e-05, No Iterations 2
GAMG:  Solving for p, Initial residual = 0.0595741, Final residual = 5.74666e-07, No Iterations 9
time step continuity errors : sum local = 1.8041e-07, global = 1.79275e-07, cumulative = 1.83828e-06
PIMPLE: iteration 2
smoothSolver:  Solving for Ux, Initial residual = 0.000606865, Final residual = 4.78478e-07, No Iterations 3
smoothSolver:  Solving for Uy, Initial residual = 0.000616241, Final residual = 4.72108e-07, No Iterations 3
GAMG:  Solving for p, Initial residual = 0.025529, Final residual = 7.74732e-07, No Iterations 12
time step continuity errors : sum local = 1.69506e-07, global = 1.68255e-07, cumulative = 2.00654e-06
ExecutionTime = 0.32 s  ClockTime = 0 s

Courant Number mean: 0.0864496 max: 0.467652
deltaT = 0.00275401
Time = 0.091738

PIMPLE: iteration 1
AMI: Creating addressing and weights between 96 source faces and 96 target faces
AMI: Patch source sum(weights) min:1.00017 max:1.00017 average:1.00017
AMI: Patch target sum(weights) min:1.00017 max:1.00017 average:1.00017
GAMG:  Solving for pcorr, Initial residual = 1, Final residual = 0.0159063, No Iterations 4
time step continuity errors : sum local = 1.44206e-05, global = -8.16949e-08, cumulative = 1.92484e-06
smoothSolver:  Solving for Ux, Initial residual = 0.0169641, Final residual = 0.000100037, No Iterations 2
smoothSolver:  Solving for Uy, Initial residual = 0.0169866, Final residual = 9.97386e-05, No Iterations 2
GAMG:  Solving for p, Initial residual = 0.0577744, Final residual = 9.68603e-07, No Iterations 9
time step continuity errors : sum local = 1.10644e-07, global = 1.09052e-07, cumulative = 2.0339e-06
PIMPLE: iteration 2
smoothSolver:  Solving for Ux, Initial residual = 0.00059908, Final residual = 4.68459e-07, No Iterations 3
smoothSolver:  Solving for Uy, Initial residual = 0.000606821, Final residual = 4.62309e-07, No Iterations 3
GAMG:  Solving for p, Initial residual = 0.0248808, Final residual = 5.45516e-07, No Iterations 10
time step continuity errors : sum local = 1.10566e-07, global = 1.09731e-07, cumulative = 2.14363e-06
ExecutionTime = 0.33 s  ClockTime = 0 s

Courant Number mean: 0.0869365 max: 0.469147
deltaT = 0.00275401
Time = 0.094492

PIMPLE: iteration 1
AMI: Creating addressing and weights between 96 source faces and 96 target faces
AMI: Patch source sum(weights) min:1.00007 max:1.00007 average:1.00007
AMI: Patch target sum(weights) min:1.00007 max:1.00007 average:1.00007
GAMG:  Solving for pcorr, Initial residual = 1, Final residual = 0.0122151, No Iterations 6
time step continuity errors : sum local = 1.36983e-05, global = -7.64733e-08, cumulative = 2.06715e-06
smoothSolver:  Solving for Ux, Initial residual = 0.0169808, Final residual = 0.000101671, No Iterations 2
smoothSolver:  Solving for Uy, Initial residual = 0.0169974, Final residual = 0.000101264, No Iterations 2
GAMG:  Solving for p, Initial residual = 0.0568573, Final residual = 7.29177e-07, No Iterations 12
time step continuity errors : sum local = 4.81012e-08, global = 4.69408e-08, cumulative = 2.11409e-06
PIMPLE: iteration 2
smoothSolver:  Solving for Ux, Initial residual = 0.000608499, Final residual = 4.89068e-07, No Iterations 3
smoothSolver:  Solving for Uy, Initial residual = 0.00061532, Final residual = 4.83459e-07, No Iterations 3
GAMG:  Solving for p, Initial residual = 0.0258493, Final residual = 9.04657e-07, No Iterations 12
time step continuity errors : sum local = 4.82763e-08, global = 4.68215e-08, cumulative = 2.16092e-06
ExecutionTime = 0.33 s  ClockTime = 0 s

Courant Number mean: 0.0873902 max: 0.468972
deltaT = 0.00275401
Time = 0.097246

PIMPLE: iteration 1
AMI: Creating addressing and weights between 96 source faces and 96 target faces
AMI: Patch source sum(weights) min:1.00024 max:1.00024 average:1.00024
AMI: Patch target sum(weights) min:1.00024 max:1.00024 average:1.00024
GAMG:  Solving for pcorr, Initial residual = 1, Final residual = 0.01529, No Iterations 4
time step continuity errors : sum local = 1.46188e-05, global = -5.63186e-08, cumulative = 2.1046e-06
smoothSolver:  Solving for Ux, Initial residual = 0.0167873, Final residual = 0.000103108, No Iterations 2
smoothSolver:  Solving for Uy, Initial residual = 0.0168041, Final residual = 0.000102711, No Iterations 2
GAMG:  Solving for p, Initial residual = 0.0743854, Final residual = 9.0729e-07, No Iterations 16
time step continuity errors : sum local = 1.62643e-07, global = 1.6088e-07, cumulative = 2.26548e-06
PIMPLE: iteration 2
smoothSolver:  Solving for Ux, Initial residual = 0.000616505, Final residual = 4.96545e-07, No Iterations 3
smoothSolver:  Solving for Uy, Initial residual = 0.000623034, Final residual = 4.92818e-07, No Iterations 3
GAMG:  Solving for p, Initial residual = 0.0263881, Final residual = 9.56998e-07, No Iterations 10
time step continuity errors : sum local = 1.57051e-07, global = 1.55577e-07, cumulative = 2.42105e-06
ExecutionTime = 0.34 s  ClockTime = 0 s

Courant Number mean: 0.0877959 max: 0.467084
deltaT = 0.00275401
Time = 0.1

PIMPLE: iteration 1
AMI: Creating addressing and weights between 96 source faces and 96 target faces
AMI: Patch source sum(weights) min:1.00026 max:1.00026 average:1.00026
AMI: Patch target sum(weights) min:1.00026 max:1.00026 average:1.00026
GAMG:  Solving for pcorr, Initial residual = 1, Final residual = 0.0127715, No Iterations 6
time step continuity errors : sum local = 1.40496e-05, global = 1.48312e-07, cumulative = 2.56937e-06
smoothSolver:  Solving for Ux, Initial residual = 0.0164266, Final residual = 0.000103806, No Iterations 2
smoothSolver:  Solving for Uy, Initial residual = 0.0164531, Final residual = 0.000103518, No Iterations 2
GAMG:  Solving for p, Initial residual = 0.0547535, Final residual = 6.62937e-07, No Iterations 9
time step continuity errors : sum local = 1.7154e-07, global = 1.70558e-07, cumulative = 2.73992e-06
PIMPLE: iteration 2
smoothSolver:  Solving for Ux, Initial residual = 0.000577189, Final residual = 4.70624e-07, No Iterations 3
smoothSolver:  Solving for Uy, Initial residual = 0.000585979, Final residual = 4.64045e-07, No Iterations 3
GAMG:  Solving for p, Initial residual = 0.025392, Final residual = 7.54345e-07, No Iterations 12
time step continuity errors : sum local = 1.58392e-07, global = 1.57168e-07, cumulative = 2.89709e-06
ExecutionTime = 0.35 s  ClockTime = 0 s

Courant Number mean: 0.0882039 max: 0.463513
deltaT = 0.00294118
Time = 0.102941

PIMPLE: iteration 1
AMI: Creating addressing and weights between 96 source faces and 96 target faces
AMI: Patch source sum(weights) min:1.00011 max:1.00011 average:1.00011
AMI: Patch target sum(weights) min:1.00011 max:1.00011 average:1.00011
GAMG:  Solving for pcorr, Initial residual = 1, Final residual = 0.0155406, No Iterations 4
time step continuity errors : sum local = 1.6685e-05, global = 2.82712e-07, cumulative = 3.1798e-06
smoothSolver:  Solving for Ux, Initial residual = 0.0176013, Final residual = 0.000125707, No Iterations 2
smoothSolver:  Solving for Uy, Initial residual = 0.0176257, Final residual = 0.000125269, No Iterations 2
GAMG:  Solving for p, Initial residual = 0.0549804, Final residual = 9.35928e-07, No Iterations 12
time step continuity errors : sum local = 8.60972e-08, global = 8.41814e-08, cumulative = 3.26399e-06
PIMPLE: iteration 2
smoothSolver:  Solving for Ux, Initial residual = 0.000647995, Final residual = 6.33866e-07, No Iterations 3
smoothSolver:  Solving for Uy, Initial residual = 0.00065767, Final residual = 6.29002e-07, No Iterations 3
GAMG:  Solving for p, Initial residual = 0.0263484, Final residual = 6.80067e-07, No Iterations 10
time step continuity errors : sum local = 8.15952e-08, global = 8.04672e-08, cumulative = 3.34445e-06
ExecutionTime = 0.36 s  ClockTime = 0 s

Courant Number mean: 0.0947385 max: 0.493721
deltaT = 0.00294118
Time = 0.105882

PIMPLE: iteration 1
AMI: Creating addressing and weights between 96 source faces and 96 target faces
AMI: Patch source sum(weights) min:1.00015 max:1.00015 average:1.00015
AMI: Patch target sum(weights) min:1.00015 max:1.00015 average:1.00015
GAMG:  Solving for pcorr, Initial residual = 1, Final residual = 0.0195007, No Iterations 5
time step continuity errors : sum local = 1.75471e-05, global = 3.4735e-07, cumulative = 3.6918e-06
smoothSolver:  Solving for Ux, Initial residual = 0.0175608, Final residual = 0.00012713, No Iterations 2
smoothSolver:  Solving for Uy, Initial residual = 0.017582, Final residual = 0.000126621, No Iterations 2
GAMG:  Solving for p, Initial residual = 0.0726523, Final residual = 7.9316e-07, No Iterations 11
time step continuity errors : sum local = 1.10702e-07, global = 1.09386e-07, cumulative = 3.80119e-06
PIMPLE: iteration 2
smoothSolver:  Solving for Ux, Initial residual = 0.000651075, Final residual = 6.44541e-07, No Iterations 3
smoothSolver:  Solving for Uy, Initial residual = 0.000661835, Final residual = 6.52765e-07, No Iterations 3
GAMG:  Solving for p, Initial residual = 0.025803, Final residual = 7.56944e-07, No Iterations 13
time step continuity errors : sum local = 1.07178e-07, global = 1.05627e-07, cumulative = 3.90682e-06
ExecutionTime = 0.37 s  ClockTime = 0 s

Courant Number mean: 0.0952431 max: 0.490633
deltaT = 0.00303605
Time = 0.108918

PIMPLE: iteration 1
AMI: Creating addressing and weights between 96 source faces and 96 target faces
AMI: Patch source sum(weights) min:1.00027 max:1.00027 average:1.00027
AMI: Patch target sum(weights) min:1.00027 max:1.00027 average:1.00027
GAMG:  Solving for pcorr, Initial residual = 1, Final residual = 0.0165805, No Iterations 4
time step continuity errors : sum local = 1.84176e-05, global = 5.77651e-07, cumulative = 4.48447e-06
smoothSolver:  Solving for Ux, Initial residual = 0.0177119, Final residual = 0.000139732, No Iterations 2
smoothSolver:  Solving for Uy, Initial residual = 0.017743, Final residual = 0.000139306, No Iterations 2
GAMG:  Solving for p, Initial residual = 0.0738403, Final residual = 7.98903e-07, No Iterations 14
time step continuity errors : sum local = 2.09259e-07, global = 2.07436e-07, cumulative = 4.6919e-06
PIMPLE: iteration 2
smoothSolver:  Solving for Ux, Initial residual = 0.000676573, Final residual = 7.24069e-07, No Iterations 3
smoothSolver:  Solving for Uy, Initial residual = 0.000687701, Final residual = 7.1868e-07, No Iterations 3
GAMG:  Solving for p, Initial residual = 0.027357, Final residual = 6.93567e-07, No Iterations 10
time step continuity errors : sum local = 2.05587e-07, global = 2.04289e-07, cumulative = 4.89619e-06
ExecutionTime = 0.38 s  ClockTime = 0 s

Courant Number mean: 0.0988255 max: 0.506329
deltaT = 0.00303605
Time = 0.111954

PIMPLE: iteration 1
AMI: Creating addressing and weights between 96 source faces and 96 target faces
AMI: Patch source sum(weights) min:1.0002 max:1.0002 average:1.0002
AMI: Patch target sum(weights) min:1.0002 max:1.0002 average:1.0002
GAMG:  Solving for pcorr, Initial residual = 1, Final residual = 0.0119805, No Iterations 6
time step continuity errors : sum local = 1.70918e-05, global = 8.7903e-07, cumulative = 5.77522e-06
smoothSolver:  Solving for Ux, Initial residual = 0.0175498, Final residual = 0.00014085, No Iterations 2
smoothSolver:  Solving for Uy, Initial residual = 0.017584, Final residual = 0.000140425, No Iterations 2
GAMG:  Solving for p, Initial residual = 0.062193, Final residual = 7.89161e-07, No Iterations 10
time step continuity errors : sum local = 1.59473e-07, global = 1.57658e-07, cumulative = 5.93288e-06
PIMPLE: iteration 2
smoothSolver:  Solving for Ux, Initial residual = 0.000656653, Final residual = 7.00022e-07, No Iterations 3
smoothSolver:  Solving for Uy, Initial residual = 0.000669011, Final residual = 7.08754e-07, No Iterations 3
GAMG:  Solving for p, Initial residual = 0.0267834, Final residual = 8.68197e-07, No Iterations 13
time step continuity errors : sum local = 1.57783e-07, global = 1.55925e-07, cumulative = 6.0888e-06
ExecutionTime = 0.39 s  ClockTime = 0 s

Courant Number mean: 0.0992988 max: 0.504093
deltaT = 0.00303605
Time = 0.114991

PIMPLE: iteration 1
AMI: Creating addressing and weights between 96 source faces and 96 target faces
AMI: Patch source sum(weights) min:1.00004 max:1.00004 average:1.00004
AMI: Patch target sum(weights) min:1.00004 max:1.00004 average:1.00004
GAMG:  Solving for pcorr, Initial residual = 1, Final residual = 0.0168857, No Iterations 4
time step continuity errors : sum local = 1.8443e-05, global = 1.05632e-06, cumulative = 7.14512e-06
smoothSolver:  Solving for Ux, Initial residual = 0.0176269, Final residual = 0.00014247, No Iterations 2
smoothSolver:  Solving for Uy, Initial residual = 0.0176545, Final residual = 0.000141985, No Iterations 2
GAMG:  Solving for p, Initial residual = 0.0567431, Final residual = 8.03204e-07, No Iterations 14
time step continuity errors : sum local = 3.38538e-08, global = 3.21291e-08, cumulative = 7.17725e-06
PIMPLE: iteration 2
smoothSolver:  Solving for Ux, Initial residual = 0.000652541, Final residual = 7.17472e-07, No Iterations 3
smoothSolver:  Solving for Uy, Initial residual = 0.00066361, Final residual = 7.20558e-07, No Iterations 3
GAMG:  Solving for p, Initial residual = 0.0263648, Final residual = 9.37164e-07, No Iterations 10
time step continuity errors : sum local = 3.31318e-08, global = 3.14821e-08, cumulative = 7.20873e-06
ExecutionTime = 0.4 s  ClockTime = 0 s

Courant Number mean: 0.0997499 max: 0.503662
deltaT = 0.00303605
Time = 0.118027

PIMPLE: iteration 1
AMI: Creating addressing and weights between 96 source faces and 96 target faces
AMI: Patch source sum(weights) min:1.00024 max:1.00024 average:1.00024
AMI: Patch target sum(weights) min:1.00024 max:1.00024 average:1.00024
GAMG:  Solving for pcorr, Initial residual = 1, Final residual = 0.0104962, No Iterations 6
time step continuity errors : sum local = 1.69154e-05, global = 1.18274e-06, cumulative = 8.39147e-06
smoothSolver:  Solving for Ux, Initial residual = 0.0174626, Final residual = 0.000143775, No Iterations 2
smoothSolver:  Solving for Uy, Initial residual = 0.0174918, Final residual = 0.000143305, No Iterations 2
GAMG:  Solving for p, Initial residual = 0.0839418, Final residual = 9.87602e-07, No Iterations 11
time step continuity errors : sum local = 1.8908e-07, global = 1.86846e-07, cumulative = 8.57831e-06
PIMPLE: iteration 2
smoothSolver:  Solving for Ux, Initial residual = 0.000671224, Final residual = 7.51797e-07, No Iterations 3
smoothSolver:  Solving for Uy, Initial residual = 0.000683474, Final residual = 7.694e-07, No Iterations 3
GAMG:  Solving for p, Initial residual = 0.0275556, Final residual = 7.39964e-07, No Iterations 13
time step continuity errors : sum local = 1.78762e-07, global = 1.77138e-07, cumulative = 8.75545e-06
ExecutionTime = 0.41 s  ClockTime = 0 s

Courant Number mean: 0.100146 max: 0.502292
deltaT = 0.00303605
Time = 0.121063

PIMPLE: iteration 1
AMI: Creating addressing and weights between 96 source faces and 96 target faces
AMI: Patch source sum(weights) min:1.00025 max:1.00025 average:1.00025
AMI: Patch target sum(weights) min:1.00025 max:1.00025 average:1.00025
GAMG:  Solving for pcorr, Initial residual = 1, Final residual = 0.0183606, No Iterations 4
time step continuity errors : sum local = 1.91159e-05, global = 1.59521e-06, cumulative = 1.03507e-05
smoothSolver:  Solving for Ux, Initial residual = 0.016942, Final residual = 0.000144451, No Iterations 2
smoothSolver:  Solving for Uy, Initial residual = 0.0169872, Final residual = 0.000144158, No Iterations 2
GAMG:  Solving for p, Initial residual = 0.0652442, Final residual = 8.91303e-07, No Iterations 13
time step continuity errors : sum local = 1.94717e-07, global = 1.9279e-07, cumulative = 1.05435e-05
PIMPLE: iteration 2
smoothSolver:  Solving for Ux, Initial residual = 0.00062153, Final residual = 6.99886e-07, No Iterations 3
smoothSolver:  Solving for Uy, Initial residual = 0.00063305, Final residual = 7.12876e-07, No Iterations 3
GAMG:  Solving for p, Initial residual = 0.0265079, Final residual = 6.0554e-07, No Iterations 11
time step continuity errors : sum local = 1.71954e-07, global = 1.70674e-07, cumulative = 1.07141e-05
ExecutionTime = 0.41 s  ClockTime = 0 s

Courant Number mean: 0.100561 max: 0.498336
deltaT = 0.00303605
Time = 0.124099

PIMPLE: iteration 1
AMI: Creating addressing and weights between 96 source faces and 96 target faces
AMI: Patch source sum(weights) min:1.00008 max:1.00008 average:1.00008
AMI: Patch target sum(weights) min:1.00008 max:1.00008 average:1.00008
GAMG:  Solving for pcorr, Initial residual = 1, Final residual = 0.0171006, No Iterations 5
time step continuity errors : sum local = 1.8348e-05, global = 1.86818e-06, cumulative = 1.25823e-05
smoothSolver:  Solving for Ux, Initial residual = 0.0170026, Final residual = 0.000146346, No Iterations 2
smoothSolver:  Solving for Uy, Initial residual = 0.0170393, Final residual = 0.00014594, No Iterations 2
GAMG:  Solving for p, Initial residual = 0.0548, Final residual = 9.10705e-07, No Iterations 9
time step continuity errors : sum local = 6.23026e-08, global = 6.02804e-08, cumulative = 1.26426e-05
PIMPLE: iteration 2
smoothSolver:  Solving for Ux, Initial residual = 0.000613981, Final residual = 6.90057e-07, No Iterations 3
smoothSolver:  Solving for Uy, Initial residual = 0.000626541, Final residual = 7.09352e-07, No Iterations 3
GAMG:  Solving for p, Initial residual = 0.0255333, Final residual = 6.15995e-07, No Iterations 14
time step continuity errors : sum local = 5.37662e-08, global = 5.26082e-08, cumulative = 1.26952e-05
ExecutionTime = 0.42 s  ClockTime = 0 s

Courant Number mean: 0.100983 max: 0.494708
deltaT = 0.00303605
Time = 0.127135

PIMPLE: iteration 1
AMI: Creating addressing and weights between 96 source faces and 96 target faces
AMI: Patch source sum(weights) min:1.00017 max:1.00017 average:1.00017
AMI: Patch target sum(weights) min:1.00017 max:1.00017 average:1.00017
GAMG:  Solving for pcorr, Initial residual = 1, Final residual = 0.0174394, No Iterations 4
time step continuity errors : sum local = 1.88792e-05, global = 2.04801e-06, cumulative = 1.47432e-05
smoothSolver:  Solving for Ux, Initial residual = 0.0169989, Final residual = 0.000147654, No Iterations 2
smoothSolver:  Solving for Uy, Initial residual = 0.0170287, Final residual = 0.000147342, No Iterations 2
GAMG:  Solving for p, Initial residual = 0.0791116, Final residual = 8.29098e-07, No Iterations 14
time step continuity errors : sum local = 1.21318e-07, global = 1.19491e-07, cumulative = 1.48627e-05
PIMPLE: iteration 2
smoothSolver:  Solving for Ux, Initial residual = 0.000625421, Final residual = 7.25992e-07, No Iterations 3
smoothSolver:  Solving for Uy, Initial residual = 0.000637475, Final residual = 7.50316e-07, No Iterations 3
GAMG:  Solving for p, Initial residual = 0.0255752, Final residual = 6.37933e-07, No Iterations 10
time step continuity errors : sum local = 1.2219e-07, global = 1.21013e-07, cumulative = 1.49837e-05
ExecutionTime = 0.43 s  ClockTime = 0 s

Courant Number mean: 0.10141 max: 0.495571
deltaT = 0.00303605
Time = 0.130171

PIMPLE: iteration 1
AMI: Creating addressing and weights between 96 source faces and 96 target faces
AMI: Patch source sum(weights) min:1.00027 max:1.00027 average:1.00027
AMI: Patch target sum(weights) min:1.00027 max:1.00027 average:1.00027
GAMG:  Solving for pcorr, Initial residual = 1, Final residual = 0.0120658, No Iterations 6
time step continuity errors : sum local = 1.74761e-05, global = 2.43153e-06, cumulative = 1.74152e-05
smoothSolver:  Solving for Ux, Initial residual = 0.0165509, Final residual = 0.000147098, No Iterations 2
smoothSolver:  Solving for Uy, Initial residual = 0.0165903, Final residual = 0.000146927, No Iterations 2
GAMG:  Solving for p, Initial residual = 0.0726129, Final residual = 9.20497e-07, No Iterations 9
time step continuity errors : sum local = 1.78958e-07, global = 1.76898e-07, cumulative = 1.75921e-05
PIMPLE: iteration 2
smoothSolver:  Solving for Ux, Initial residual = 0.000600189, Final residual = 7.06655e-07, No Iterations 3
smoothSolver:  Solving for Uy, Initial residual = 0.000613821, Final residual = 7.37044e-07, No Iterations 3
GAMG:  Solving for p, Initial residual = 0.0260376, Final residual = 9.66607e-07, No Iterations 13
time step continuity errors : sum local = 1.79693e-07, global = 1.77567e-07, cumulative = 1.77697e-05
ExecutionTime = 0.44 s  ClockTime = 0 s

Courant Number mean: 0.101762 max: 0.49552
deltaT = 0.00303605
Time = 0.133207

PIMPLE: iteration 1
AMI: Creating addressing and weights between 96 source faces and 96 target faces
AMI: Patch source sum(weights) min:1.00018 max:1.00018 average:1.00018
AMI: Patch target sum(weights) min:1.00018 max:1.00018 average:1.00018
GAMG:  Solving for pcorr, Initial residual = 1, Final residual = 0.0176279, No Iterations 4
time step continuity errors : sum local = 1.88608e-05, global = 2.81429e-06, cumulative = 2.0584e-05
smoothSolver:  Solving for Ux, Initial residual = 0.0164999, Final residual = 0.00014751, No Iterations 2
smoothSolver:  Solving for Uy, Initial residual = 0.016539, Final residual = 0.000147433, No Iterations 2
GAMG:  Solving for p, Initial residual = 0.0583588, Final residual = 8.37838e-07, No Iterations 15
time step continuity errors : sum local = 1.21406e-07, global = 1.19606e-07, cumulative = 2.07036e-05
PIMPLE: iteration 2
smoothSolver:  Solving for Ux, Initial residual = 0.00058488, Final residual = 6.92143e-07, No Iterations 3
smoothSolver:  Solving for Uy, Initial residual = 0.000597887, Final residual = 7.23291e-07, No Iterations 3
GAMG:  Solving for p, Initial residual = 0.0253456, Final residual = 9.56256e-07, No Iterations 11
time step continuity errors : sum local = 1.18856e-07, global = 1.16678e-07, cumulative = 2.08203e-05
ExecutionTime = 0.45 s  ClockTime = 0 s

Courant Number mean: 0.1021 max: 0.493398
deltaT = 0.00303605
Time = 0.136243

PIMPLE: iteration 1
AMI: Creating addressing and weights between 96 source faces and 96 target faces
AMI: Patch source sum(weights) min:1.00008 max:1.00008 average:1.00008
AMI: Patch target sum(weights) min:1.00008 max:1.00008 average:1.00008
GAMG:  Solving for pcorr, Initial residual = 1, Final residual = 0.0191752, No Iterations 5
time step continuity errors : sum local = 1.90441e-05, global = 3.09214e-06, cumulative = 2.39124e-05
smoothSolver:  Solving for Ux, Initial residual = 0.0165227, Final residual = 0.000148651, No Iterations 2
smoothSolver:  Solving for Uy, Initial residual = 0.0165536, Final residual = 0.00014868, No Iterations 2
GAMG:  Solving for p, Initial residual = 0.0637704, Final residual = 7.04021e-07, No Iterations 12
time step continuity errors : sum local = 5.49913e-08, global = 5.35097e-08, cumulative = 2.39659e-05
PIMPLE: iteration 2
smoothSolver:  Solving for Ux, Initial residual = 0.000586798, Final residual = 7.0814e-07, No Iterations 3
smoothSolver:  Solving for Uy, Initial residual = 0.000600089, Final residual = 7.52655e-07, No Iterations 3
GAMG:  Solving for p, Initial residual = 0.0255013, Final residual = 7.42869e-07, No Iterations 13
time step continuity errors : sum local = 5.30643e-08, global = 5.14606e-08, cumulative = 2.40174e-05
ExecutionTime = 0.46 s  ClockTime = 0 s

Courant Number mean: 0.102453 max: 0.489538
deltaT = 0.00303605
Time = 0.139279

PIMPLE: iteration 1
AMI: Creating addressing and weights between 96 source faces and 96 target faces
AMI: Patch source sum(weights) min:1.00025 max:1.00025 average:1.00025
AMI: Patch target sum(weights) min:1.00025 max:1.00025 average:1.00025
GAMG:  Solving for pcorr, Initial residual = 1, Final residual = 0.016928, No Iterations 4
time step continuity errors : sum local = 1.88184e-05, global = 3.38243e-06, cumulative = 2.73998e-05
smoothSolver:  Solving for Ux, Initial residual = 0.0162802, Final residual = 0.000149545, No Iterations 2
smoothSolver:  Solving for Uy, Initial residual = 0.0163099, Final residual = 0.000149661, No Iterations 2
GAMG:  Solving for p, Initial residual = 0.0864759, Final residual = 6.81206e-07, No Iterations 15
time step continuity errors : sum local = 1.66628e-07, global = 1.65378e-07, cumulative = 2.75652e-05
PIMPLE: iteration 2
smoothSolver:  Solving for Ux, Initial residual = 0.000593543, Final residual = 7.24643e-07, No Iterations 3
smoothSolver:  Solving for Uy, Initial residual = 0.000606182, Final residual = 7.70887e-07, No Iterations 3
GAMG:  Solving for p, Initial residual = 0.0262709, Final residual = 8.45213e-07, No Iterations 12
time step continuity errors : sum local = 1.53634e-07, global = 1.52174e-07, cumulative = 2.77174e-05
ExecutionTime = 0.47 s  ClockTime = 0 s

Courant Number mean: 0.102782 max: 0.485668
deltaT = 0.00319585
Time = 0.142475

PIMPLE: iteration 1
AMI: Creating addressing and weights between 96 source faces and 96 target faces
AMI: Patch source sum(weights) min:1.00023 max:1.00023 average:1.00023
AMI: Patch target sum(weights) min:1.00023 max:1.00023 average:1.00023
GAMG:  Solving for pcorr, Initial residual = 1, Final residual = 0.010672, No Iterations 6
time step continuity errors : sum local = 1.88823e-05, global = 4.25363e-06, cumulative = 3.1971e-05
smoothSolver:  Solving for Ux, Initial residual = 0.016765, Final residual = 3.00908e-05, No Iterations 3
smoothSolver:  Solving for Uy, Initial residual = 0.0168072, Final residual = 3.0299e-05, No Iterations 3
GAMG:  Solving for p, Initial residual = 0.0702499, Final residual = 9.92866e-07, No Iterations 8
time step continuity errors : sum local = 1.66088e-07, global = 1.64228e-07, cumulative = 3.21352e-05
PIMPLE: iteration 2
smoothSolver:  Solving for Ux, Initial residual = 0.000626454, Final residual = 8.41772e-07, No Iterations 3
smoothSolver:  Solving for Uy, Initial residual = 0.000637028, Final residual = 8.15293e-07, No Iterations 3
GAMG:  Solving for p, Initial residual = 0.0266069, Final residual = 8.64513e-07, No Iterations 13
time step continuity errors : sum local = 1.46983e-07, global = 1.45059e-07, cumulative = 3.22803e-05
ExecutionTime = 0.47 s  ClockTime = 0 s

Courant Number mean: 0.108513 max: 0.512541
deltaT = 0.00319585
Time = 0.145671

[...]
smoothSolver:  Solving for Ux, Initial residual = 0.000870773, Final residual = 7.00554e-07, No Iterations 3
smoothSolver:  Solving for Uy, Initial residual = 0.000809835, Final residual = 4.01268e-07, No Iterations 3
GAMG:  Solving for p, Initial residual = 0.0621978, Final residual = 7.6055e-07, No Iterations 13
time step continuity errors : sum local = 3.07854e-08, global = -2.84154e-08, cumulative = 0.114248
ExecutionTime = 9.34 s  ClockTime = 10 s

Courant Number mean: 0.0875806 max: 0.513093
deltaT = 0.00625
Time = 4.91875

PIMPLE: iteration 1
AMI: Creating addressing and weights between 96 source faces and 96 target faces
AMI: Patch source sum(weights) min:1.00017 max:1.00017 average:1.00017
AMI: Patch target sum(weights) min:1.00017 max:1.00017 average:1.00017
GAMG:  Solving for pcorr, Initial residual = 1, Final residual = 0.0128448, No Iterations 6
time step continuity errors : sum local = 0.000251003, global = 0.000239172, cumulative = 0.114488
smoothSolver:  Solving for Ux, Initial residual = 0.0201859, Final residual = 0.000151623, No Iterations 2
smoothSolver:  Solving for Uy, Initial residual = 0.0201371, Final residual = 0.000134854, No Iterations 2
GAMG:  Solving for p, Initial residual = 0.0885472, Final residual = 5.90938e-07, No Iterations 15
time step continuity errors : sum local = 2.03694e-08, global = -1.86437e-08, cumulative = 0.114488
PIMPLE: iteration 2
smoothSolver:  Solving for Ux, Initial residual = 0.000878432, Final residual = 6.95412e-07, No Iterations 3
smoothSolver:  Solving for Uy, Initial residual = 0.000838012, Final residual = 3.99303e-07, No Iterations 3
GAMG:  Solving for p, Initial residual = 0.0625601, Final residual = 6.93746e-07, No Iterations 17
time step continuity errors : sum local = 2.32127e-08, global = -2.10925e-08, cumulative = 0.114488
ExecutionTime = 9.35 s  ClockTime = 10 s

Courant Number mean: 0.087545 max: 0.513183
deltaT = 0.00625
Time = 4.925

PIMPLE: iteration 1
AMI: Creating addressing and weights between 96 source faces and 96 target faces
AMI: Patch source sum(weights) min:1.00017 max:1.00017 average:1.00017
AMI: Patch target sum(weights) min:1.00017 max:1.00017 average:1.00017
GAMG:  Solving for pcorr, Initial residual = 1, Final residual = 0.0191662, No Iterations 4
time step continuity errors : sum local = 0.000257207, global = 0.000239179, cumulative = 0.114727
smoothSolver:  Solving for Ux, Initial residual = 0.0202421, Final residual = 0.000149292, No Iterations 2
smoothSolver:  Solving for Uy, Initial residual = 0.0202246, Final residual = 0.000132626, No Iterations 2
GAMG:  Solving for p, Initial residual = 0.0941554, Final residual = 6.0898e-07, No Iterations 18
time step continuity errors : sum local = 1.96137e-08, global = -1.80728e-08, cumulative = 0.114727
PIMPLE: iteration 2
smoothSolver:  Solving for Ux, Initial residual = 0.000857399, Final residual = 6.98055e-07, No Iterations 3
smoothSolver:  Solving for Uy, Initial residual = 0.000838667, Final residual = 4.22153e-07, No Iterations 3
GAMG:  Solving for p, Initial residual = 0.0623265, Final residual = 8.17232e-07, No Iterations 14
time step continuity errors : sum local = 2.31536e-08, global = -2.09564e-08, cumulative = 0.114727
ExecutionTime = 9.36 s  ClockTime = 10 s

Courant Number mean: 0.0875386 max: 0.512479
deltaT = 0.00625
Time = 4.93125

PIMPLE: iteration 1
AMI: Creating addressing and weights between 96 source faces and 96 target faces
AMI: Patch source sum(weights) min:1.00026 max:1.00026 average:1.00026
AMI: Patch target sum(weights) min:1.00026 max:1.00026 average:1.00026
GAMG:  Solving for pcorr, Initial residual = 1, Final residual = 0.0170956, No Iterations 6
time step continuity errors : sum local = 0.000253794, global = 0.00023917, cumulative = 0.114966
smoothSolver:  Solving for Ux, Initial residual = 0.0201905, Final residual = 0.000147024, No Iterations 2
smoothSolver:  Solving for Uy, Initial residual = 0.0202062, Final residual = 0.000130613, No Iterations 2
GAMG:  Solving for p, Initial residual = 0.0929748, Final residual = 9.6699e-07, No Iterations 15
time step continuity errors : sum local = 3.15165e-08, global = -2.87568e-08, cumulative = 0.114966
PIMPLE: iteration 2
smoothSolver:  Solving for Ux, Initial residual = 0.000849388, Final residual = 6.8258e-07, No Iterations 3
smoothSolver:  Solving for Uy, Initial residual = 0.000843605, Final residual = 4.08979e-07, No Iterations 3
GAMG:  Solving for p, Initial residual = 0.0618785, Final residual = 7.25965e-07, No Iterations 19
time step continuity errors : sum local = 3.32585e-08, global = -3.09939e-08, cumulative = 0.114966
ExecutionTime = 9.36 s  ClockTime = 10 s

Courant Number mean: 0.0875533 max: 0.513017
deltaT = 0.00625
Time = 4.9375

PIMPLE: iteration 1
AMI: Creating addressing and weights between 96 source faces and 96 target faces
AMI: Patch source sum(weights) min:1 max:1 average:1
AMI: Patch target sum(weights) min:1 max:1 average:1
GAMG:  Solving for pcorr, Initial residual = 1, Final residual = 0.0193796, No Iterations 4
time step continuity errors : sum local = 0.000257727, global = 0.000239143, cumulative = 0.115205
smoothSolver:  Solving for Ux, Initial residual = 0.0200808, Final residual = 0.000145789, No Iterations 2
smoothSolver:  Solving for Uy, Initial residual = 0.0201162, Final residual = 0.000129137, No Iterations 2
GAMG:  Solving for p, Initial residual = 0.0894002, Final residual = 7.9372e-07, No Iterations 19
time step continuity errors : sum local = 2.44997e-09, global = -1.37651e-10, cumulative = 0.115205
PIMPLE: iteration 2
smoothSolver:  Solving for Ux, Initial residual = 0.000835015, Final residual = 6.79821e-07, No Iterations 3
smoothSolver:  Solving for Uy, Initial residual = 0.000861837, Final residual = 4.424e-07, No Iterations 3
GAMG:  Solving for p, Initial residual = 0.0629392, Final residual = 8.34024e-07, No Iterations 13
time step continuity errors : sum local = 2.77751e-09, global = -1.56482e-10, cumulative = 0.115205
ExecutionTime = 9.37 s  ClockTime = 10 s

Courant Number mean: 0.0875899 max: 0.512983
deltaT = 0.00625
Time = 4.94375

PIMPLE: iteration 1
AMI: Creating addressing and weights between 96 source faces and 96 target faces
AMI: Patch source sum(weights) min:1.00026 max:1.00026 average:1.00026
AMI: Patch target sum(weights) min:1.00026 max:1.00026 average:1.00026
GAMG:  Solving for pcorr, Initial residual = 1, Final residual = 0.0131705, No Iterations 6
time step continuity errors : sum local = 0.000250905, global = 0.000239234, cumulative = 0.115444
smoothSolver:  Solving for Ux, Initial residual = 0.0201172, Final residual = 0.000144433, No Iterations 2
smoothSolver:  Solving for Uy, Initial residual = 0.0201801, Final residual = 0.000128461, No Iterations 2
GAMG:  Solving for p, Initial residual = 0.101709, Final residual = 8.83398e-07, No Iterations 13
time step continuity errors : sum local = 2.80168e-08, global = -2.54273e-08, cumulative = 0.115444
PIMPLE: iteration 2
smoothSolver:  Solving for Ux, Initial residual = 0.000828361, Final residual = 6.63875e-07, No Iterations 3
smoothSolver:  Solving for Uy, Initial residual = 0.000851316, Final residual = 4.27915e-07, No Iterations 3
GAMG:  Solving for p, Initial residual = 0.063009, Final residual = 7.42278e-07, No Iterations 19
time step continuity errors : sum local = 3.23309e-08, global = -3.00749e-08, cumulative = 0.115444
ExecutionTime = 9.38 s  ClockTime = 10 s

Courant Number mean: 0.0876063 max: 0.512219
deltaT = 0.00625
Time = 4.95

PIMPLE: iteration 1
AMI: Creating addressing and weights between 96 source faces and 96 target faces
AMI: Patch source sum(weights) min:1.00017 max:1.00017 average:1.00017
AMI: Patch target sum(weights) min:1.00017 max:1.00017 average:1.00017
GAMG:  Solving for pcorr, Initial residual = 1, Final residual = 0.00793053, No Iterations 5
time step continuity errors : sum local = 0.000247138, global = 0.00023917, cumulative = 0.115683
smoothSolver:  Solving for Ux, Initial residual = 0.0198934, Final residual = 0.000142846, No Iterations 2
smoothSolver:  Solving for Uy, Initial residual = 0.0199837, Final residual = 0.000127068, No Iterations 2
GAMG:  Solving for p, Initial residual = 0.0938392, Final residual = 9.35014e-07, No Iterations 17
time step continuity errors : sum local = 2.23119e-08, global = -1.95174e-08, cumulative = 0.115683
PIMPLE: iteration 2
smoothSolver:  Solving for Ux, Initial residual = 0.00079834, Final residual = 6.44234e-07, No Iterations 3
smoothSolver:  Solving for Uy, Initial residual = 0.000864267, Final residual = 4.54627e-07, No Iterations 3
GAMG:  Solving for p, Initial residual = 0.0629896, Final residual = 6.41056e-07, No Iterations 13
time step continuity errors : sum local = 2.31546e-08, global = -2.14606e-08, cumulative = 0.115683
ExecutionTime = 9.39 s  ClockTime = 10 s

Courant Number mean: 0.0876312 max: 0.512664
deltaT = 0.00625
Time = 4.95625

PIMPLE: iteration 1
AMI: Creating addressing and weights between 96 source faces and 96 target faces
AMI: Patch source sum(weights) min:1.00017 max:1.00017 average:1.00017
AMI: Patch target sum(weights) min:1.00017 max:1.00017 average:1.00017
GAMG:  Solving for pcorr, Initial residual = 1, Final residual = 0.0130666, No Iterations 6
time step continuity errors : sum local = 0.000251096, global = 0.000239221, cumulative = 0.115922
smoothSolver:  Solving for Ux, Initial residual = 0.0199285, Final residual = 0.000141492, No Iterations 2
smoothSolver:  Solving for Uy, Initial residual = 0.0200463, Final residual = 0.000126697, No Iterations 2
GAMG:  Solving for p, Initial residual = 0.0987627, Final residual = 9.46326e-07, No Iterations 15
time step continuity errors : sum local = 1.99184e-08, global = -1.69963e-08, cumulative = 0.115922
PIMPLE: iteration 2
smoothSolver:  Solving for Ux, Initial residual = 0.000792792, Final residual = 6.28152e-07, No Iterations 3
smoothSolver:  Solving for Uy, Initial residual = 0.000867265, Final residual = 4.5154e-07, No Iterations 3
GAMG:  Solving for p, Initial residual = 0.0638068, Final residual = 7.92472e-07, No Iterations 17
time step continuity errors : sum local = 2.32904e-08, global = -2.09256e-08, cumulative = 0.115922
ExecutionTime = 9.4 s  ClockTime = 10 s

Courant Number mean: 0.0876544 max: 0.512553
deltaT = 0.00625
Time = 4.9625

PIMPLE: iteration 1
AMI: Creating addressing and weights between 96 source faces and 96 target faces
AMI: Patch source sum(weights) min:1.00026 max:1.00026 average:1.00026
AMI: Patch target sum(weights) min:1.00026 max:1.00026 average:1.00026
GAMG:  Solving for pcorr, Initial residual = 1, Final residual = 0.00743556, No Iterations 5
time step continuity errors : sum local = 0.000246638, global = 0.000239256, cumulative = 0.116162
smoothSolver:  Solving for Ux, Initial residual = 0.019907, Final residual = 0.000140421, No Iterations 2
smoothSolver:  Solving for Uy, Initial residual = 0.0200385, Final residual = 0.000126465, No Iterations 2
GAMG:  Solving for p, Initial residual = 0.101031, Final residual = 8.56591e-07, No Iterations 19
time step continuity errors : sum local = 2.84151e-08, global = -2.63309e-08, cumulative = 0.116162
PIMPLE: iteration 2
smoothSolver:  Solving for Ux, Initial residual = 0.000766339, Final residual = 6.07856e-07, No Iterations 3
smoothSolver:  Solving for Uy, Initial residual = 0.000861323, Final residual = 4.71754e-07, No Iterations 3
GAMG:  Solving for p, Initial residual = 0.0640447, Final residual = 8.84846e-07, No Iterations 12
time step continuity errors : sum local = 3.23386e-08, global = -3.02767e-08, cumulative = 0.116162
ExecutionTime = 9.41 s  ClockTime = 10 s

Courant Number mean: 0.0876584 max: 0.511625
deltaT = 0.00625
Time = 4.96875

PIMPLE: iteration 1
AMI: Creating addressing and weights between 96 source faces and 96 target faces
AMI: Patch source sum(weights) min:1 max:1 average:1
AMI: Patch target sum(weights) min:1 max:1 average:1
GAMG:  Solving for pcorr, Initial residual = 1, Final residual = 0.015238, No Iterations 6
time step continuity errors : sum local = 0.00025231, global = 0.000239273, cumulative = 0.116401
smoothSolver:  Solving for Ux, Initial residual = 0.0198327, Final residual = 0.000138748, No Iterations 2
smoothSolver:  Solving for Uy, Initial residual = 0.0199861, Final residual = 0.000126168, No Iterations 2
GAMG:  Solving for p, Initial residual = 0.0972071, Final residual = 5.47647e-07, No Iterations 15
time step continuity errors : sum local = 1.72409e-09, global = -1.2392e-10, cumulative = 0.116401
PIMPLE: iteration 2
smoothSolver:  Solving for Ux, Initial residual = 0.000754535, Final residual = 5.83586e-07, No Iterations 3
smoothSolver:  Solving for Uy, Initial residual = 0.000884174, Final residual = 4.69321e-07, No Iterations 3
GAMG:  Solving for p, Initial residual = 0.0652538, Final residual = 7.83967e-07, No Iterations 18
time step continuity errors : sum local = 2.08987e-09, global = -1.4976e-10, cumulative = 0.116401
ExecutionTime = 9.42 s  ClockTime = 10 s

Courant Number mean: 0.0876553 max: 0.512173
deltaT = 0.00625
Time = 4.975

PIMPLE: iteration 1
AMI: Creating addressing and weights between 96 source faces and 96 target faces
AMI: Patch source sum(weights) min:1.00026 max:1.00026 average:1.00026
AMI: Patch target sum(weights) min:1.00026 max:1.00026 average:1.00026
GAMG:  Solving for pcorr, Initial residual = 1, Final residual = 0.007942, No Iterations 5
time step continuity errors : sum local = 0.000248035, global = 0.000239409, cumulative = 0.11664
smoothSolver:  Solving for Ux, Initial residual = 0.0198956, Final residual = 0.000137634, No Iterations 2
smoothSolver:  Solving for Uy, Initial residual = 0.0200723, Final residual = 0.000126361, No Iterations 2
GAMG:  Solving for p, Initial residual = 0.108744, Final residual = 8.58318e-07, No Iterations 19
time step continuity errors : sum local = 2.6013e-08, global = -2.39055e-08, cumulative = 0.11664
PIMPLE: iteration 2
smoothSolver:  Solving for Ux, Initial residual = 0.000740019, Final residual = 5.69023e-07, No Iterations 3
smoothSolver:  Solving for Uy, Initial residual = 0.000870642, Final residual = 5.10663e-07, No Iterations 3
GAMG:  Solving for p, Initial residual = 0.0656679, Final residual = 6.74781e-07, No Iterations 16
time step continuity errors : sum local = 2.97768e-08, global = -2.82224e-08, cumulative = 0.11664
ExecutionTime = 9.43 s  ClockTime = 10 s

Courant Number mean: 0.0876302 max: 0.511732
deltaT = 0.00625
Time = 4.98125

PIMPLE: iteration 1
AMI: Creating addressing and weights between 96 source faces and 96 target faces
AMI: Patch source sum(weights) min:1.00017 max:1.00017 average:1.00017
AMI: Patch target sum(weights) min:1.00017 max:1.00017 average:1.00017
GAMG:  Solving for pcorr, Initial residual = 1, Final residual = 0.0121584, No Iterations 6
time step continuity errors : sum local = 0.000250373, global = 0.000239392, cumulative = 0.11688
smoothSolver:  Solving for Ux, Initial residual = 0.0197122, Final residual = 0.000135235, No Iterations 2
smoothSolver:  Solving for Uy, Initial residual = 0.0199099, Final residual = 0.000125772, No Iterations 2
GAMG:  Solving for p, Initial residual = 0.0980196, Final residual = 6.35305e-07, No Iterations 15
time step continuity errors : sum local = 2.10827e-08, global = -1.92176e-08, cumulative = 0.11688
PIMPLE: iteration 2
smoothSolver:  Solving for Ux, Initial residual = 0.000715079, Final residual = 5.36303e-07, No Iterations 3
smoothSolver:  Solving for Uy, Initial residual = 0.000880276, Final residual = 4.87069e-07, No Iterations 3
GAMG:  Solving for p, Initial residual = 0.065489, Final residual = 9.53808e-07, No Iterations 16
time step continuity errors : sum local = 2.23807e-08, global = -2.00568e-08, cumulative = 0.11688
ExecutionTime = 9.44 s  ClockTime = 10 s

Courant Number mean: 0.0875688 max: 0.510831
deltaT = 0.00625
Time = 4.9875

PIMPLE: iteration 1
AMI: Creating addressing and weights between 96 source faces and 96 target faces
AMI: Patch source sum(weights) min:1.00017 max:1.00017 average:1.00017
AMI: Patch target sum(weights) min:1.00017 max:1.00017 average:1.00017
GAMG:  Solving for pcorr, Initial residual = 1, Final residual = 0.0185917, No Iterations 4
time step continuity errors : sum local = 0.000256504, global = 0.00023949, cumulative = 0.117119
smoothSolver:  Solving for Ux, Initial residual = 0.0197513, Final residual = 0.000133388, No Iterations 2
smoothSolver:  Solving for Uy, Initial residual = 0.0199672, Final residual = 0.000125635, No Iterations 2
GAMG:  Solving for p, Initial residual = 0.103491, Final residual = 7.32431e-07, No Iterations 20
time step continuity errors : sum local = 2.03431e-08, global = -1.82326e-08, cumulative = 0.117119
PIMPLE: iteration 2
smoothSolver:  Solving for Ux, Initial residual = 0.000701339, Final residual = 5.13313e-07, No Iterations 3
smoothSolver:  Solving for Uy, Initial residual = 0.000874612, Final residual = 5.23126e-07, No Iterations 3
GAMG:  Solving for p, Initial residual = 0.0655089, Final residual = 4.79297e-07, No Iterations 13
time step continuity errors : sum local = 2.05006e-08, global = -1.93049e-08, cumulative = 0.117119
ExecutionTime = 9.45 s  ClockTime = 10 s

Courant Number mean: 0.0874513 max: 0.511012
deltaT = 0.00625
Time = 4.99375

PIMPLE: iteration 1
AMI: Creating addressing and weights between 96 source faces and 96 target faces
AMI: Patch source sum(weights) min:1.00026 max:1.00026 average:1.00026
AMI: Patch target sum(weights) min:1.00026 max:1.00026 average:1.00026
GAMG:  Solving for pcorr, Initial residual = 1, Final residual = 0.0187587, No Iterations 6
time step continuity errors : sum local = 0.000256108, global = 0.000239575, cumulative = 0.117359
smoothSolver:  Solving for Ux, Initial residual = 0.019711, Final residual = 0.000130483, No Iterations 2
smoothSolver:  Solving for Uy, Initial residual = 0.0199426, Final residual = 0.000124214, No Iterations 2
GAMG:  Solving for p, Initial residual = 0.103491, Final residual = 7.34864e-07, No Iterations 15
time step continuity errors : sum local = 2.95376e-08, global = -2.78871e-08, cumulative = 0.117359
PIMPLE: iteration 2
smoothSolver:  Solving for Ux, Initial residual = 0.000694672, Final residual = 4.90201e-07, No Iterations 3
smoothSolver:  Solving for Uy, Initial residual = 0.00087389, Final residual = 4.66893e-07, No Iterations 3
GAMG:  Solving for p, Initial residual = 0.0658029, Final residual = 8.9402e-07, No Iterations 20
time step continuity errors : sum local = 2.90941e-08, global = -2.69653e-08, cumulative = 0.117359
ExecutionTime = 9.46 s  ClockTime = 10 s

Courant Number mean: 0.0873025 max: 0.510514
deltaT = 0.00625
Time = 5

PIMPLE: iteration 1
AMI: Creating addressing and weights between 96 source faces and 96 target faces
AMI: Patch source sum(weights) min:1 max:1 average:1
AMI: Patch target sum(weights) min:1 max:1 average:1
GAMG:  Solving for pcorr, Initial residual = 1, Final residual = 0.00741896, No Iterations 5
time step continuity errors : sum local = 0.000247059, global = 0.000239644, cumulative = 0.117598
smoothSolver:  Solving for Ux, Initial residual = 0.0196112, Final residual = 0.000127716, No Iterations 2
smoothSolver:  Solving for Uy, Initial residual = 0.0198603, Final residual = 0.000122158, No Iterations 2
GAMG:  Solving for p, Initial residual = 0.100367, Final residual = 8.43222e-07, No Iterations 20
time step continuity errors : sum local = 2.46525e-09, global = -1.25484e-10, cumulative = 0.117598
PIMPLE: iteration 2
smoothSolver:  Solving for Ux, Initial residual = 0.000671924, Final residual = 4.52525e-07, No Iterations 3
smoothSolver:  Solving for Uy, Initial residual = 0.000903342, Final residual = 4.68911e-07, No Iterations 3
GAMG:  Solving for p, Initial residual = 0.0673813, Final residual = 7.57894e-07, No Iterations 16
time step continuity errors : sum local = 2.30664e-09, global = -1.27137e-10, cumulative = 0.117598
ExecutionTime = 9.48 s  ClockTime = 10 s

End

Finalising parallel run
