/*---------------------------------------------------------------------------*\
| =========                 |                                                 |
| \\      /  F ield         | OpenFOAM: The Open Source CFD Toolbox           |
|  \\    /   O peration     | Version:  v1806                                 |
|   \\  /    A nd           | Web:      www.OpenFOAM.com                      |
|    \\/     M anipulation  |                                                 |
\*---------------------------------------------------------------------------*/
Build  : v1806-17db0a5e0ee7
Arch   : "LSB;label=32;scalar=64"
Exec   : topoSet
Date   : Jul 09 2023
Time   : 12:09:29
Host   : "helios"
PID    : 18173
I/O    : uncollated
Case   : /home/hannes/Projekte/insight/src/test/toolkit/tutorial_mixerVesselAMI2D
nProcs : 1
trapFpe: Floating point exception trapping enabled (FOAM_SIGFPE).
fileModificationChecking : Monitoring run-time modified files using timeStampMaster (fileModificationSkew 10)
allowSystemOperations : Allowing user-supplied system call operations

// * * * * * * * * * * * * * * * * * * * * * * * * * * * * * * * * * * * * * //
Create time

Create polyMesh for time = 0

Reading topoSetDict

Time = 0
    mesh not changed.
Created faceSet AMI
    Applying source patchToFace
    Adding all faces of patch "AMI.*" ...
    Found matching patch AMI1 with 96 faces.
    Found matching patch AMI2 with 96 faces.
    faceSet AMI now size 192
End

